file 108364 1592876672                                          
version 2
run Hello-0-20200622-20:44:16-13299
attr configname Hello
attr datetime 20200622-20:44:16
attr experiment Hello
attr inifile omnetpp.ini
attr iterationvars $0=10
attr iterationvarsf 10-
attr measurement $0=10
attr network HelloTest
attr processid 13299
attr repetition 0
attr replication #0
attr resultdir results
attr runnumber 0
attr seedset 10
param **.mote[*].mobility.numHosts 100
param **.moteNumber 100
param **.mobility.typename "\"StaticGridMobility\""
param **.mobility.initFromDisplayString false
param **.enl.np.typename "\"ProbabilisticBroadcast\""
param **.broadcastTime 30s
param **.bcastDelay 15s
param **.maxAttemps 3
param **.wlan[*].typename "\"Ieee80211Interface\""
param **.wlan[*].radio.typename "\"Ieee80211ScalarRadio\""
param **.wlan[*].channelNumber 1
param **.wlan[*].radio.transmitter.power 20mW
param **.wlan[*].radio.transmitter.bitrate 18Mbps
param **.wlan[*].radio.receiver.sensitivity -85dBm
param **.wlan[*].radio.receiver.snirThreshold 4dB
param **.wlan[*].mac.dcf.channelAccess.cwMin 7
param **.wlan[*].mgmt.typename "\"Ieee80211MgmtAdhoc\""
param **.wlan[*].agent.typename "\"\""
param **.radioMedium.typename "\"Ieee80211ScalarRadioMedium\""
param **.radioMedium.neighborCache.typename "\"QuadTreeNeighborCache\""
param **.radioMedium.neighborCache.maxNumOfPointsPerQuadrant 16
param **.radioMedium.neighborCache.radioMediumModule "\"radioMedium\""
param **.radioMedium.rangeFilter "\"communicationRange\""
param **.radioMedium.mediumLimitCache.minReceptionPower -85dBm
param **.radioMedium.neighborCache.refillPeriod 3600s
param **.radioMedium.pathLoss.alpha 3.5
param **.radioMedium.mediumLimitCache.centerFrequency 2.412GHz
param **.constraintAreaMinX 0m
param **.constraintAreaMinY 0m
param **.constraintAreaMinZ 0m
param **.constraintAreaMaxX 200m
param **.constraintAreaMaxY 200m
param **.constraintAreaMaxZ 0m

vector 0 HelloTest.mote[0].wlan[0].radio radioMode:vector ETV
attr interpolationmode sample-hold
attr source radioModeChanged
attr title "Radio mode, vector"
vector 1 HelloTest.mote[0].wlan[0].radio radioChannel:vector ETV
attr interpolationmode sample-hold
attr source radioChannelChanged
attr title "Radio channel, vector"
vector 2 HelloTest.mote[1].wlan[0].radio radioMode:vector ETV
attr interpolationmode sample-hold
attr source radioModeChanged
attr title "Radio mode, vector"
vector 3 HelloTest.mote[1].wlan[0].radio radioChannel:vector ETV
attr interpolationmode sample-hold
attr source radioChannelChanged
attr title "Radio channel, vector"
vector 4 HelloTest.mote[2].wlan[0].radio radioMode:vector ETV
attr interpolationmode sample-hold
attr source radioModeChanged
attr title "Radio mode, vector"
vector 5 HelloTest.mote[2].wlan[0].radio radioChannel:vector ETV
attr interpolationmode sample-hold
attr source radioChannelChanged
attr title "Radio channel, vector"
vector 6 HelloTest.mote[3].wlan[0].radio radioMode:vector ETV
attr interpolationmode sample-hold
attr source radioModeChanged
attr title "Radio mode, vector"
vector 7 HelloTest.mote[3].wlan[0].radio radioChannel:vector ETV
attr interpolationmode sample-hold
attr source radioChannelChanged
attr title "Radio channel, vector"
vector 8 HelloTest.mote[4].wlan[0].radio radioMode:vector ETV
attr interpolationmode sample-hold
attr source radioModeChanged
attr title "Radio mode, vector"
vector 9 HelloTest.mote[4].wlan[0].radio radioChannel:vector ETV
attr interpolationmode sample-hold
attr source radioChannelChanged
attr title "Radio channel, vector"
vector 10 HelloTest.mote[5].wlan[0].radio radioMode:vector ETV
attr interpolationmode sample-hold
attr source radioModeChanged
attr title "Radio mode, vector"
vector 11 HelloTest.mote[5].wlan[0].radio radioChannel:vector ETV
attr interpolationmode sample-hold
attr source radioChannelChanged
attr title "Radio channel, vector"
vector 12 HelloTest.mote[6].wlan[0].radio radioMode:vector ETV
attr interpolationmode sample-hold
attr source radioModeChanged
attr title "Radio mode, vector"
vector 13 HelloTest.mote[6].wlan[0].radio radioChannel:vector ETV
attr interpolationmode sample-hold
attr source radioChannelChanged
attr title "Radio channel, vector"
vector 14 HelloTest.mote[7].wlan[0].radio radioMode:vector ETV
attr interpolationmode sample-hold
attr source radioModeChanged
attr title "Radio mode, vector"
vector 15 HelloTest.mote[7].wlan[0].radio radioChannel:vector ETV
attr interpolationmode sample-hold
attr source radioChannelChanged
attr title "Radio channel, vector"
vector 16 HelloTest.mote[8].wlan[0].radio radioMode:vector ETV
attr interpolationmode sample-hold
attr source radioModeChanged
attr title "Radio mode, vector"
vector 17 HelloTest.mote[8].wlan[0].radio radioChannel:vector ETV
attr interpolationmode sample-hold
attr source radioChannelChanged
attr title "Radio channel, vector"
vector 18 HelloTest.mote[9].wlan[0].radio radioMode:vector ETV
attr interpolationmode sample-hold
attr source radioModeChanged
attr title "Radio mode, vector"
vector 19 HelloTest.mote[9].wlan[0].radio radioChannel:vector ETV
attr interpolationmode sample-hold
attr source radioChannelChanged
attr title "Radio channel, vector"
vector 20 HelloTest.mote[10].wlan[0].radio radioMode:vector ETV
attr interpolationmode sample-hold
attr source radioModeChanged
attr title "Radio mode, vector"
vector 21 HelloTest.mote[10].wlan[0].radio radioChannel:vector ETV
attr interpolationmode sample-hold
attr source radioChannelChanged
attr title "Radio channel, vector"
vector 22 HelloTest.mote[11].wlan[0].radio radioMode:vector ETV
attr interpolationmode sample-hold
attr source radioModeChanged
attr title "Radio mode, vector"
vector 23 HelloTest.mote[11].wlan[0].radio radioChannel:vector ETV
attr interpolationmode sample-hold
attr source radioChannelChanged
attr title "Radio channel, vector"
vector 24 HelloTest.mote[12].wlan[0].radio radioMode:vector ETV
attr interpolationmode sample-hold
attr source radioModeChanged
attr title "Radio mode, vector"
vector 25 HelloTest.mote[12].wlan[0].radio radioChannel:vector ETV
attr interpolationmode sample-hold
attr source radioChannelChanged
attr title "Radio channel, vector"
vector 26 HelloTest.mote[13].wlan[0].radio radioMode:vector ETV
attr interpolationmode sample-hold
attr source radioModeChanged
attr title "Radio mode, vector"
vector 27 HelloTest.mote[13].wlan[0].radio radioChannel:vector ETV
attr interpolationmode sample-hold
attr source radioChannelChanged
attr title "Radio channel, vector"
vector 28 HelloTest.mote[14].wlan[0].radio radioMode:vector ETV
attr interpolationmode sample-hold
attr source radioModeChanged
attr title "Radio mode, vector"
vector 29 HelloTest.mote[14].wlan[0].radio radioChannel:vector ETV
attr interpolationmode sample-hold
attr source radioChannelChanged
attr title "Radio channel, vector"
vector 30 HelloTest.mote[15].wlan[0].radio radioMode:vector ETV
attr interpolationmode sample-hold
attr source radioModeChanged
attr title "Radio mode, vector"
vector 31 HelloTest.mote[15].wlan[0].radio radioChannel:vector ETV
attr interpolationmode sample-hold
attr source radioChannelChanged
attr title "Radio channel, vector"
vector 32 HelloTest.mote[16].wlan[0].radio radioMode:vector ETV
attr interpolationmode sample-hold
attr source radioModeChanged
attr title "Radio mode, vector"
vector 33 HelloTest.mote[16].wlan[0].radio radioChannel:vector ETV
attr interpolationmode sample-hold
attr source radioChannelChanged
attr title "Radio channel, vector"
vector 34 HelloTest.mote[17].wlan[0].radio radioMode:vector ETV
attr interpolationmode sample-hold
attr source radioModeChanged
attr title "Radio mode, vector"
vector 35 HelloTest.mote[17].wlan[0].radio radioChannel:vector ETV
attr interpolationmode sample-hold
attr source radioChannelChanged
attr title "Radio channel, vector"
vector 36 HelloTest.mote[18].wlan[0].radio radioMode:vector ETV
attr interpolationmode sample-hold
attr source radioModeChanged
attr title "Radio mode, vector"
vector 37 HelloTest.mote[18].wlan[0].radio radioChannel:vector ETV
attr interpolationmode sample-hold
attr source radioChannelChanged
attr title "Radio channel, vector"
vector 38 HelloTest.mote[19].wlan[0].radio radioMode:vector ETV
attr interpolationmode sample-hold
attr source radioModeChanged
attr title "Radio mode, vector"
vector 39 HelloTest.mote[19].wlan[0].radio radioChannel:vector ETV
attr interpolationmode sample-hold
attr source radioChannelChanged
attr title "Radio channel, vector"
vector 40 HelloTest.mote[20].wlan[0].radio radioMode:vector ETV
attr interpolationmode sample-hold
attr source radioModeChanged
attr title "Radio mode, vector"
vector 41 HelloTest.mote[20].wlan[0].radio radioChannel:vector ETV
attr interpolationmode sample-hold
attr source radioChannelChanged
attr title "Radio channel, vector"
vector 42 HelloTest.mote[21].wlan[0].radio radioMode:vector ETV
attr interpolationmode sample-hold
attr source radioModeChanged
attr title "Radio mode, vector"
vector 43 HelloTest.mote[21].wlan[0].radio radioChannel:vector ETV
attr interpolationmode sample-hold
attr source radioChannelChanged
attr title "Radio channel, vector"
vector 44 HelloTest.mote[22].wlan[0].radio radioMode:vector ETV
attr interpolationmode sample-hold
attr source radioModeChanged
attr title "Radio mode, vector"
vector 45 HelloTest.mote[22].wlan[0].radio radioChannel:vector ETV
attr interpolationmode sample-hold
attr source radioChannelChanged
attr title "Radio channel, vector"
vector 46 HelloTest.mote[23].wlan[0].radio radioMode:vector ETV
attr interpolationmode sample-hold
attr source radioModeChanged
attr title "Radio mode, vector"
vector 47 HelloTest.mote[23].wlan[0].radio radioChannel:vector ETV
attr interpolationmode sample-hold
attr source radioChannelChanged
attr title "Radio channel, vector"
vector 48 HelloTest.mote[24].wlan[0].radio radioMode:vector ETV
attr interpolationmode sample-hold
attr source radioModeChanged
attr title "Radio mode, vector"
vector 49 HelloTest.mote[24].wlan[0].radio radioChannel:vector ETV
attr interpolationmode sample-hold
attr source radioChannelChanged
attr title "Radio channel, vector"
vector 50 HelloTest.mote[25].wlan[0].radio radioMode:vector ETV
attr interpolationmode sample-hold
attr source radioModeChanged
attr title "Radio mode, vector"
vector 51 HelloTest.mote[25].wlan[0].radio radioChannel:vector ETV
attr interpolationmode sample-hold
attr source radioChannelChanged
attr title "Radio channel, vector"
vector 52 HelloTest.mote[26].wlan[0].radio radioMode:vector ETV
attr interpolationmode sample-hold
attr source radioModeChanged
attr title "Radio mode, vector"
vector 53 HelloTest.mote[26].wlan[0].radio radioChannel:vector ETV
attr interpolationmode sample-hold
attr source radioChannelChanged
attr title "Radio channel, vector"
vector 54 HelloTest.mote[27].wlan[0].radio radioMode:vector ETV
attr interpolationmode sample-hold
attr source radioModeChanged
attr title "Radio mode, vector"
vector 55 HelloTest.mote[27].wlan[0].radio radioChannel:vector ETV
attr interpolationmode sample-hold
attr source radioChannelChanged
attr title "Radio channel, vector"
vector 56 HelloTest.mote[28].wlan[0].radio radioMode:vector ETV
attr interpolationmode sample-hold
attr source radioModeChanged
attr title "Radio mode, vector"
vector 57 HelloTest.mote[28].wlan[0].radio radioChannel:vector ETV
attr interpolationmode sample-hold
attr source radioChannelChanged
attr title "Radio channel, vector"
vector 58 HelloTest.mote[29].wlan[0].radio radioMode:vector ETV
attr interpolationmode sample-hold
attr source radioModeChanged
attr title "Radio mode, vector"
vector 59 HelloTest.mote[29].wlan[0].radio radioChannel:vector ETV
attr interpolationmode sample-hold
attr source radioChannelChanged
attr title "Radio channel, vector"
vector 60 HelloTest.mote[30].wlan[0].radio radioMode:vector ETV
attr interpolationmode sample-hold
attr source radioModeChanged
attr title "Radio mode, vector"
vector 61 HelloTest.mote[30].wlan[0].radio radioChannel:vector ETV
attr interpolationmode sample-hold
attr source radioChannelChanged
attr title "Radio channel, vector"
vector 62 HelloTest.mote[31].wlan[0].radio radioMode:vector ETV
attr interpolationmode sample-hold
attr source radioModeChanged
attr title "Radio mode, vector"
vector 63 HelloTest.mote[31].wlan[0].radio radioChannel:vector ETV
attr interpolationmode sample-hold
attr source radioChannelChanged
attr title "Radio channel, vector"
vector 64 HelloTest.mote[32].wlan[0].radio radioMode:vector ETV
attr interpolationmode sample-hold
attr source radioModeChanged
attr title "Radio mode, vector"
vector 65 HelloTest.mote[32].wlan[0].radio radioChannel:vector ETV
attr interpolationmode sample-hold
attr source radioChannelChanged
attr title "Radio channel, vector"
vector 66 HelloTest.mote[33].wlan[0].radio radioMode:vector ETV
attr interpolationmode sample-hold
attr source radioModeChanged
attr title "Radio mode, vector"
vector 67 HelloTest.mote[33].wlan[0].radio radioChannel:vector ETV
attr interpolationmode sample-hold
attr source radioChannelChanged
attr title "Radio channel, vector"
vector 68 HelloTest.mote[34].wlan[0].radio radioMode:vector ETV
attr interpolationmode sample-hold
attr source radioModeChanged
attr title "Radio mode, vector"
vector 69 HelloTest.mote[34].wlan[0].radio radioChannel:vector ETV
attr interpolationmode sample-hold
attr source radioChannelChanged
attr title "Radio channel, vector"
vector 70 HelloTest.mote[35].wlan[0].radio radioMode:vector ETV
attr interpolationmode sample-hold
attr source radioModeChanged
attr title "Radio mode, vector"
vector 71 HelloTest.mote[35].wlan[0].radio radioChannel:vector ETV
attr interpolationmode sample-hold
attr source radioChannelChanged
attr title "Radio channel, vector"
vector 72 HelloTest.mote[36].wlan[0].radio radioMode:vector ETV
attr interpolationmode sample-hold
attr source radioModeChanged
attr title "Radio mode, vector"
vector 73 HelloTest.mote[36].wlan[0].radio radioChannel:vector ETV
attr interpolationmode sample-hold
attr source radioChannelChanged
attr title "Radio channel, vector"
vector 74 HelloTest.mote[37].wlan[0].radio radioMode:vector ETV
attr interpolationmode sample-hold
attr source radioModeChanged
attr title "Radio mode, vector"
vector 75 HelloTest.mote[37].wlan[0].radio radioChannel:vector ETV
attr interpolationmode sample-hold
attr source radioChannelChanged
attr title "Radio channel, vector"
vector 76 HelloTest.mote[38].wlan[0].radio radioMode:vector ETV
attr interpolationmode sample-hold
attr source radioModeChanged
attr title "Radio mode, vector"
vector 77 HelloTest.mote[38].wlan[0].radio radioChannel:vector ETV
attr interpolationmode sample-hold
attr source radioChannelChanged
attr title "Radio channel, vector"
vector 78 HelloTest.mote[39].wlan[0].radio radioMode:vector ETV
attr interpolationmode sample-hold
attr source radioModeChanged
attr title "Radio mode, vector"
vector 79 HelloTest.mote[39].wlan[0].radio radioChannel:vector ETV
attr interpolationmode sample-hold
attr source radioChannelChanged
attr title "Radio channel, vector"
vector 80 HelloTest.mote[40].wlan[0].radio radioMode:vector ETV
attr interpolationmode sample-hold
attr source radioModeChanged
attr title "Radio mode, vector"
vector 81 HelloTest.mote[40].wlan[0].radio radioChannel:vector ETV
attr interpolationmode sample-hold
attr source radioChannelChanged
attr title "Radio channel, vector"
vector 82 HelloTest.mote[41].wlan[0].radio radioMode:vector ETV
attr interpolationmode sample-hold
attr source radioModeChanged
attr title "Radio mode, vector"
vector 83 HelloTest.mote[41].wlan[0].radio radioChannel:vector ETV
attr interpolationmode sample-hold
attr source radioChannelChanged
attr title "Radio channel, vector"
vector 84 HelloTest.mote[42].wlan[0].radio radioMode:vector ETV
attr interpolationmode sample-hold
attr source radioModeChanged
attr title "Radio mode, vector"
vector 85 HelloTest.mote[42].wlan[0].radio radioChannel:vector ETV
attr interpolationmode sample-hold
attr source radioChannelChanged
attr title "Radio channel, vector"
vector 86 HelloTest.mote[43].wlan[0].radio radioMode:vector ETV
attr interpolationmode sample-hold
attr source radioModeChanged
attr title "Radio mode, vector"
vector 87 HelloTest.mote[43].wlan[0].radio radioChannel:vector ETV
attr interpolationmode sample-hold
attr source radioChannelChanged
attr title "Radio channel, vector"
vector 88 HelloTest.mote[44].wlan[0].radio radioMode:vector ETV
attr interpolationmode sample-hold
attr source radioModeChanged
attr title "Radio mode, vector"
vector 89 HelloTest.mote[44].wlan[0].radio radioChannel:vector ETV
attr interpolationmode sample-hold
attr source radioChannelChanged
attr title "Radio channel, vector"
vector 90 HelloTest.mote[45].wlan[0].radio radioMode:vector ETV
attr interpolationmode sample-hold
attr source radioModeChanged
attr title "Radio mode, vector"
vector 91 HelloTest.mote[45].wlan[0].radio radioChannel:vector ETV
attr interpolationmode sample-hold
attr source radioChannelChanged
attr title "Radio channel, vector"
vector 92 HelloTest.mote[46].wlan[0].radio radioMode:vector ETV
attr interpolationmode sample-hold
attr source radioModeChanged
attr title "Radio mode, vector"
vector 93 HelloTest.mote[46].wlan[0].radio radioChannel:vector ETV
attr interpolationmode sample-hold
attr source radioChannelChanged
attr title "Radio channel, vector"
vector 94 HelloTest.mote[47].wlan[0].radio radioMode:vector ETV
attr interpolationmode sample-hold
attr source radioModeChanged
attr title "Radio mode, vector"
vector 95 HelloTest.mote[47].wlan[0].radio radioChannel:vector ETV
attr interpolationmode sample-hold
attr source radioChannelChanged
attr title "Radio channel, vector"
vector 96 HelloTest.mote[48].wlan[0].radio radioMode:vector ETV
attr interpolationmode sample-hold
attr source radioModeChanged
attr title "Radio mode, vector"
vector 97 HelloTest.mote[48].wlan[0].radio radioChannel:vector ETV
attr interpolationmode sample-hold
attr source radioChannelChanged
attr title "Radio channel, vector"
vector 98 HelloTest.mote[49].wlan[0].radio radioMode:vector ETV
attr interpolationmode sample-hold
attr source radioModeChanged
attr title "Radio mode, vector"
vector 99 HelloTest.mote[49].wlan[0].radio radioChannel:vector ETV
attr interpolationmode sample-hold
attr source radioChannelChanged
attr title "Radio channel, vector"
vector 100 HelloTest.mote[50].wlan[0].radio radioMode:vector ETV
attr interpolationmode sample-hold
attr source radioModeChanged
attr title "Radio mode, vector"
vector 101 HelloTest.mote[50].wlan[0].radio radioChannel:vector ETV
attr interpolationmode sample-hold
attr source radioChannelChanged
attr title "Radio channel, vector"
vector 102 HelloTest.mote[51].wlan[0].radio radioMode:vector ETV
attr interpolationmode sample-hold
attr source radioModeChanged
attr title "Radio mode, vector"
vector 103 HelloTest.mote[51].wlan[0].radio radioChannel:vector ETV
attr interpolationmode sample-hold
attr source radioChannelChanged
attr title "Radio channel, vector"
vector 104 HelloTest.mote[52].wlan[0].radio radioMode:vector ETV
attr interpolationmode sample-hold
attr source radioModeChanged
attr title "Radio mode, vector"
vector 105 HelloTest.mote[52].wlan[0].radio radioChannel:vector ETV
attr interpolationmode sample-hold
attr source radioChannelChanged
attr title "Radio channel, vector"
vector 106 HelloTest.mote[53].wlan[0].radio radioMode:vector ETV
attr interpolationmode sample-hold
attr source radioModeChanged
attr title "Radio mode, vector"
vector 107 HelloTest.mote[53].wlan[0].radio radioChannel:vector ETV
attr interpolationmode sample-hold
attr source radioChannelChanged
attr title "Radio channel, vector"
vector 108 HelloTest.mote[54].wlan[0].radio radioMode:vector ETV
attr interpolationmode sample-hold
attr source radioModeChanged
attr title "Radio mode, vector"
vector 109 HelloTest.mote[54].wlan[0].radio radioChannel:vector ETV
attr interpolationmode sample-hold
attr source radioChannelChanged
attr title "Radio channel, vector"
vector 110 HelloTest.mote[55].wlan[0].radio radioMode:vector ETV
attr interpolationmode sample-hold
attr source radioModeChanged
attr title "Radio mode, vector"
vector 111 HelloTest.mote[55].wlan[0].radio radioChannel:vector ETV
attr interpolationmode sample-hold
attr source radioChannelChanged
attr title "Radio channel, vector"
vector 112 HelloTest.mote[56].wlan[0].radio radioMode:vector ETV
attr interpolationmode sample-hold
attr source radioModeChanged
attr title "Radio mode, vector"
vector 113 HelloTest.mote[56].wlan[0].radio radioChannel:vector ETV
attr interpolationmode sample-hold
attr source radioChannelChanged
attr title "Radio channel, vector"
vector 114 HelloTest.mote[57].wlan[0].radio radioMode:vector ETV
attr interpolationmode sample-hold
attr source radioModeChanged
attr title "Radio mode, vector"
vector 115 HelloTest.mote[57].wlan[0].radio radioChannel:vector ETV
attr interpolationmode sample-hold
attr source radioChannelChanged
attr title "Radio channel, vector"
vector 116 HelloTest.mote[58].wlan[0].radio radioMode:vector ETV
attr interpolationmode sample-hold
attr source radioModeChanged
attr title "Radio mode, vector"
vector 117 HelloTest.mote[58].wlan[0].radio radioChannel:vector ETV
attr interpolationmode sample-hold
attr source radioChannelChanged
attr title "Radio channel, vector"
vector 118 HelloTest.mote[59].wlan[0].radio radioMode:vector ETV
attr interpolationmode sample-hold
attr source radioModeChanged
attr title "Radio mode, vector"
vector 119 HelloTest.mote[59].wlan[0].radio radioChannel:vector ETV
attr interpolationmode sample-hold
attr source radioChannelChanged
attr title "Radio channel, vector"
vector 120 HelloTest.mote[60].wlan[0].radio radioMode:vector ETV
attr interpolationmode sample-hold
attr source radioModeChanged
attr title "Radio mode, vector"
vector 121 HelloTest.mote[60].wlan[0].radio radioChannel:vector ETV
attr interpolationmode sample-hold
attr source radioChannelChanged
attr title "Radio channel, vector"
vector 122 HelloTest.mote[61].wlan[0].radio radioMode:vector ETV
attr interpolationmode sample-hold
attr source radioModeChanged
attr title "Radio mode, vector"
vector 123 HelloTest.mote[61].wlan[0].radio radioChannel:vector ETV
attr interpolationmode sample-hold
attr source radioChannelChanged
attr title "Radio channel, vector"
vector 124 HelloTest.mote[62].wlan[0].radio radioMode:vector ETV
attr interpolationmode sample-hold
attr source radioModeChanged
attr title "Radio mode, vector"
vector 125 HelloTest.mote[62].wlan[0].radio radioChannel:vector ETV
attr interpolationmode sample-hold
attr source radioChannelChanged
attr title "Radio channel, vector"
vector 126 HelloTest.mote[63].wlan[0].radio radioMode:vector ETV
attr interpolationmode sample-hold
attr source radioModeChanged
attr title "Radio mode, vector"
vector 127 HelloTest.mote[63].wlan[0].radio radioChannel:vector ETV
attr interpolationmode sample-hold
attr source radioChannelChanged
attr title "Radio channel, vector"
vector 128 HelloTest.mote[64].wlan[0].radio radioMode:vector ETV
attr interpolationmode sample-hold
attr source radioModeChanged
attr title "Radio mode, vector"
vector 129 HelloTest.mote[64].wlan[0].radio radioChannel:vector ETV
attr interpolationmode sample-hold
attr source radioChannelChanged
attr title "Radio channel, vector"
vector 130 HelloTest.mote[65].wlan[0].radio radioMode:vector ETV
attr interpolationmode sample-hold
attr source radioModeChanged
attr title "Radio mode, vector"
vector 131 HelloTest.mote[65].wlan[0].radio radioChannel:vector ETV
attr interpolationmode sample-hold
attr source radioChannelChanged
attr title "Radio channel, vector"
vector 132 HelloTest.mote[66].wlan[0].radio radioMode:vector ETV
attr interpolationmode sample-hold
attr source radioModeChanged
attr title "Radio mode, vector"
vector 133 HelloTest.mote[66].wlan[0].radio radioChannel:vector ETV
attr interpolationmode sample-hold
attr source radioChannelChanged
attr title "Radio channel, vector"
vector 134 HelloTest.mote[67].wlan[0].radio radioMode:vector ETV
attr interpolationmode sample-hold
attr source radioModeChanged
attr title "Radio mode, vector"
vector 135 HelloTest.mote[67].wlan[0].radio radioChannel:vector ETV
attr interpolationmode sample-hold
attr source radioChannelChanged
attr title "Radio channel, vector"
vector 136 HelloTest.mote[68].wlan[0].radio radioMode:vector ETV
attr interpolationmode sample-hold
attr source radioModeChanged
attr title "Radio mode, vector"
vector 137 HelloTest.mote[68].wlan[0].radio radioChannel:vector ETV
attr interpolationmode sample-hold
attr source radioChannelChanged
attr title "Radio channel, vector"
vector 138 HelloTest.mote[69].wlan[0].radio radioMode:vector ETV
attr interpolationmode sample-hold
attr source radioModeChanged
attr title "Radio mode, vector"
vector 139 HelloTest.mote[69].wlan[0].radio radioChannel:vector ETV
attr interpolationmode sample-hold
attr source radioChannelChanged
attr title "Radio channel, vector"
vector 140 HelloTest.mote[70].wlan[0].radio radioMode:vector ETV
attr interpolationmode sample-hold
attr source radioModeChanged
attr title "Radio mode, vector"
vector 141 HelloTest.mote[70].wlan[0].radio radioChannel:vector ETV
attr interpolationmode sample-hold
attr source radioChannelChanged
attr title "Radio channel, vector"
vector 142 HelloTest.mote[71].wlan[0].radio radioMode:vector ETV
attr interpolationmode sample-hold
attr source radioModeChanged
attr title "Radio mode, vector"
vector 143 HelloTest.mote[71].wlan[0].radio radioChannel:vector ETV
attr interpolationmode sample-hold
attr source radioChannelChanged
attr title "Radio channel, vector"
vector 144 HelloTest.mote[72].wlan[0].radio radioMode:vector ETV
attr interpolationmode sample-hold
attr source radioModeChanged
attr title "Radio mode, vector"
vector 145 HelloTest.mote[72].wlan[0].radio radioChannel:vector ETV
attr interpolationmode sample-hold
attr source radioChannelChanged
attr title "Radio channel, vector"
vector 146 HelloTest.mote[73].wlan[0].radio radioMode:vector ETV
attr interpolationmode sample-hold
attr source radioModeChanged
attr title "Radio mode, vector"
vector 147 HelloTest.mote[73].wlan[0].radio radioChannel:vector ETV
attr interpolationmode sample-hold
attr source radioChannelChanged
attr title "Radio channel, vector"
vector 148 HelloTest.mote[74].wlan[0].radio radioMode:vector ETV
attr interpolationmode sample-hold
attr source radioModeChanged
attr title "Radio mode, vector"
vector 149 HelloTest.mote[74].wlan[0].radio radioChannel:vector ETV
attr interpolationmode sample-hold
attr source radioChannelChanged
attr title "Radio channel, vector"
vector 150 HelloTest.mote[75].wlan[0].radio radioMode:vector ETV
attr interpolationmode sample-hold
attr source radioModeChanged
attr title "Radio mode, vector"
vector 151 HelloTest.mote[75].wlan[0].radio radioChannel:vector ETV
attr interpolationmode sample-hold
attr source radioChannelChanged
attr title "Radio channel, vector"
vector 152 HelloTest.mote[76].wlan[0].radio radioMode:vector ETV
attr interpolationmode sample-hold
attr source radioModeChanged
attr title "Radio mode, vector"
vector 153 HelloTest.mote[76].wlan[0].radio radioChannel:vector ETV
attr interpolationmode sample-hold
attr source radioChannelChanged
attr title "Radio channel, vector"
vector 154 HelloTest.mote[77].wlan[0].radio radioMode:vector ETV
attr interpolationmode sample-hold
attr source radioModeChanged
attr title "Radio mode, vector"
vector 155 HelloTest.mote[77].wlan[0].radio radioChannel:vector ETV
attr interpolationmode sample-hold
attr source radioChannelChanged
attr title "Radio channel, vector"
vector 156 HelloTest.mote[78].wlan[0].radio radioMode:vector ETV
attr interpolationmode sample-hold
attr source radioModeChanged
attr title "Radio mode, vector"
vector 157 HelloTest.mote[78].wlan[0].radio radioChannel:vector ETV
attr interpolationmode sample-hold
attr source radioChannelChanged
attr title "Radio channel, vector"
vector 158 HelloTest.mote[79].wlan[0].radio radioMode:vector ETV
attr interpolationmode sample-hold
attr source radioModeChanged
attr title "Radio mode, vector"
vector 159 HelloTest.mote[79].wlan[0].radio radioChannel:vector ETV
attr interpolationmode sample-hold
attr source radioChannelChanged
attr title "Radio channel, vector"
vector 160 HelloTest.mote[80].wlan[0].radio radioMode:vector ETV
attr interpolationmode sample-hold
attr source radioModeChanged
attr title "Radio mode, vector"
vector 161 HelloTest.mote[80].wlan[0].radio radioChannel:vector ETV
attr interpolationmode sample-hold
attr source radioChannelChanged
attr title "Radio channel, vector"
vector 162 HelloTest.mote[81].wlan[0].radio radioMode:vector ETV
attr interpolationmode sample-hold
attr source radioModeChanged
attr title "Radio mode, vector"
vector 163 HelloTest.mote[81].wlan[0].radio radioChannel:vector ETV
attr interpolationmode sample-hold
attr source radioChannelChanged
attr title "Radio channel, vector"
vector 164 HelloTest.mote[82].wlan[0].radio radioMode:vector ETV
attr interpolationmode sample-hold
attr source radioModeChanged
attr title "Radio mode, vector"
vector 165 HelloTest.mote[82].wlan[0].radio radioChannel:vector ETV
attr interpolationmode sample-hold
attr source radioChannelChanged
attr title "Radio channel, vector"
vector 166 HelloTest.mote[83].wlan[0].radio radioMode:vector ETV
attr interpolationmode sample-hold
attr source radioModeChanged
attr title "Radio mode, vector"
vector 167 HelloTest.mote[83].wlan[0].radio radioChannel:vector ETV
attr interpolationmode sample-hold
attr source radioChannelChanged
attr title "Radio channel, vector"
vector 168 HelloTest.mote[84].wlan[0].radio radioMode:vector ETV
attr interpolationmode sample-hold
attr source radioModeChanged
attr title "Radio mode, vector"
vector 169 HelloTest.mote[84].wlan[0].radio radioChannel:vector ETV
attr interpolationmode sample-hold
attr source radioChannelChanged
attr title "Radio channel, vector"
vector 170 HelloTest.mote[85].wlan[0].radio radioMode:vector ETV
attr interpolationmode sample-hold
attr source radioModeChanged
attr title "Radio mode, vector"
vector 171 HelloTest.mote[85].wlan[0].radio radioChannel:vector ETV
attr interpolationmode sample-hold
attr source radioChannelChanged
attr title "Radio channel, vector"
vector 172 HelloTest.mote[86].wlan[0].radio radioMode:vector ETV
attr interpolationmode sample-hold
attr source radioModeChanged
attr title "Radio mode, vector"
vector 173 HelloTest.mote[86].wlan[0].radio radioChannel:vector ETV
attr interpolationmode sample-hold
attr source radioChannelChanged
attr title "Radio channel, vector"
vector 174 HelloTest.mote[87].wlan[0].radio radioMode:vector ETV
attr interpolationmode sample-hold
attr source radioModeChanged
attr title "Radio mode, vector"
vector 175 HelloTest.mote[87].wlan[0].radio radioChannel:vector ETV
attr interpolationmode sample-hold
attr source radioChannelChanged
attr title "Radio channel, vector"
vector 176 HelloTest.mote[88].wlan[0].radio radioMode:vector ETV
attr interpolationmode sample-hold
attr source radioModeChanged
attr title "Radio mode, vector"
vector 177 HelloTest.mote[88].wlan[0].radio radioChannel:vector ETV
attr interpolationmode sample-hold
attr source radioChannelChanged
attr title "Radio channel, vector"
vector 178 HelloTest.mote[89].wlan[0].radio radioMode:vector ETV
attr interpolationmode sample-hold
attr source radioModeChanged
attr title "Radio mode, vector"
vector 179 HelloTest.mote[89].wlan[0].radio radioChannel:vector ETV
attr interpolationmode sample-hold
attr source radioChannelChanged
attr title "Radio channel, vector"
vector 180 HelloTest.mote[90].wlan[0].radio radioMode:vector ETV
attr interpolationmode sample-hold
attr source radioModeChanged
attr title "Radio mode, vector"
vector 181 HelloTest.mote[90].wlan[0].radio radioChannel:vector ETV
attr interpolationmode sample-hold
attr source radioChannelChanged
attr title "Radio channel, vector"
vector 182 HelloTest.mote[91].wlan[0].radio radioMode:vector ETV
attr interpolationmode sample-hold
attr source radioModeChanged
attr title "Radio mode, vector"
vector 183 HelloTest.mote[91].wlan[0].radio radioChannel:vector ETV
attr interpolationmode sample-hold
attr source radioChannelChanged
attr title "Radio channel, vector"
vector 184 HelloTest.mote[92].wlan[0].radio radioMode:vector ETV
attr interpolationmode sample-hold
attr source radioModeChanged
attr title "Radio mode, vector"
vector 185 HelloTest.mote[92].wlan[0].radio radioChannel:vector ETV
attr interpolationmode sample-hold
attr source radioChannelChanged
attr title "Radio channel, vector"
vector 186 HelloTest.mote[93].wlan[0].radio radioMode:vector ETV
attr interpolationmode sample-hold
attr source radioModeChanged
attr title "Radio mode, vector"
vector 187 HelloTest.mote[93].wlan[0].radio radioChannel:vector ETV
attr interpolationmode sample-hold
attr source radioChannelChanged
attr title "Radio channel, vector"
vector 188 HelloTest.mote[94].wlan[0].radio radioMode:vector ETV
attr interpolationmode sample-hold
attr source radioModeChanged
attr title "Radio mode, vector"
vector 189 HelloTest.mote[94].wlan[0].radio radioChannel:vector ETV
attr interpolationmode sample-hold
attr source radioChannelChanged
attr title "Radio channel, vector"
vector 190 HelloTest.mote[95].wlan[0].radio radioMode:vector ETV
attr interpolationmode sample-hold
attr source radioModeChanged
attr title "Radio mode, vector"
vector 191 HelloTest.mote[95].wlan[0].radio radioChannel:vector ETV
attr interpolationmode sample-hold
attr source radioChannelChanged
attr title "Radio channel, vector"
vector 192 HelloTest.mote[96].wlan[0].radio radioMode:vector ETV
attr interpolationmode sample-hold
attr source radioModeChanged
attr title "Radio mode, vector"
vector 193 HelloTest.mote[96].wlan[0].radio radioChannel:vector ETV
attr interpolationmode sample-hold
attr source radioChannelChanged
attr title "Radio channel, vector"
vector 194 HelloTest.mote[97].wlan[0].radio radioMode:vector ETV
attr interpolationmode sample-hold
attr source radioModeChanged
attr title "Radio mode, vector"
vector 195 HelloTest.mote[97].wlan[0].radio radioChannel:vector ETV
attr interpolationmode sample-hold
attr source radioChannelChanged
attr title "Radio channel, vector"
vector 196 HelloTest.mote[98].wlan[0].radio radioMode:vector ETV
attr interpolationmode sample-hold
attr source radioModeChanged
attr title "Radio mode, vector"
vector 197 HelloTest.mote[98].wlan[0].radio radioChannel:vector ETV
attr interpolationmode sample-hold
attr source radioChannelChanged
attr title "Radio channel, vector"
vector 198 HelloTest.mote[99].wlan[0].radio radioMode:vector ETV
attr interpolationmode sample-hold
attr source radioModeChanged
attr title "Radio mode, vector"
vector 199 HelloTest.mote[99].wlan[0].radio radioChannel:vector ETV
attr interpolationmode sample-hold
attr source radioChannelChanged
attr title "Radio channel, vector"
vector 200 HelloTest.mote[0].wlan[0].radio receptionState:vector ETV
attr interpolationmode sample-hold
attr source receptionStateChanged
attr title "Radio reception state, vector"
vector 201 HelloTest.mote[1].wlan[0].radio receptionState:vector ETV
attr interpolationmode sample-hold
attr source receptionStateChanged
attr title "Radio reception state, vector"
vector 202 HelloTest.mote[2].wlan[0].radio receptionState:vector ETV
attr interpolationmode sample-hold
attr source receptionStateChanged
attr title "Radio reception state, vector"
vector 203 HelloTest.mote[3].wlan[0].radio receptionState:vector ETV
attr interpolationmode sample-hold
attr source receptionStateChanged
attr title "Radio reception state, vector"
vector 204 HelloTest.mote[4].wlan[0].radio receptionState:vector ETV
attr interpolationmode sample-hold
attr source receptionStateChanged
attr title "Radio reception state, vector"
vector 205 HelloTest.mote[5].wlan[0].radio receptionState:vector ETV
attr interpolationmode sample-hold
attr source receptionStateChanged
attr title "Radio reception state, vector"
vector 206 HelloTest.mote[6].wlan[0].radio receptionState:vector ETV
attr interpolationmode sample-hold
attr source receptionStateChanged
attr title "Radio reception state, vector"
vector 207 HelloTest.mote[7].wlan[0].radio receptionState:vector ETV
attr interpolationmode sample-hold
attr source receptionStateChanged
attr title "Radio reception state, vector"
vector 208 HelloTest.mote[8].wlan[0].radio receptionState:vector ETV
attr interpolationmode sample-hold
attr source receptionStateChanged
attr title "Radio reception state, vector"
vector 209 HelloTest.mote[9].wlan[0].radio receptionState:vector ETV
attr interpolationmode sample-hold
attr source receptionStateChanged
attr title "Radio reception state, vector"
vector 210 HelloTest.mote[10].wlan[0].radio receptionState:vector ETV
attr interpolationmode sample-hold
attr source receptionStateChanged
attr title "Radio reception state, vector"
vector 211 HelloTest.mote[11].wlan[0].radio receptionState:vector ETV
attr interpolationmode sample-hold
attr source receptionStateChanged
attr title "Radio reception state, vector"
vector 212 HelloTest.mote[12].wlan[0].radio receptionState:vector ETV
attr interpolationmode sample-hold
attr source receptionStateChanged
attr title "Radio reception state, vector"
vector 213 HelloTest.mote[13].wlan[0].radio receptionState:vector ETV
attr interpolationmode sample-hold
attr source receptionStateChanged
attr title "Radio reception state, vector"
vector 214 HelloTest.mote[14].wlan[0].radio receptionState:vector ETV
attr interpolationmode sample-hold
attr source receptionStateChanged
attr title "Radio reception state, vector"
vector 215 HelloTest.mote[15].wlan[0].radio receptionState:vector ETV
attr interpolationmode sample-hold
attr source receptionStateChanged
attr title "Radio reception state, vector"
vector 216 HelloTest.mote[16].wlan[0].radio receptionState:vector ETV
attr interpolationmode sample-hold
attr source receptionStateChanged
attr title "Radio reception state, vector"
vector 217 HelloTest.mote[17].wlan[0].radio receptionState:vector ETV
attr interpolationmode sample-hold
attr source receptionStateChanged
attr title "Radio reception state, vector"
vector 218 HelloTest.mote[18].wlan[0].radio receptionState:vector ETV
attr interpolationmode sample-hold
attr source receptionStateChanged
attr title "Radio reception state, vector"
vector 219 HelloTest.mote[19].wlan[0].radio receptionState:vector ETV
attr interpolationmode sample-hold
attr source receptionStateChanged
attr title "Radio reception state, vector"
vector 220 HelloTest.mote[20].wlan[0].radio receptionState:vector ETV
attr interpolationmode sample-hold
attr source receptionStateChanged
attr title "Radio reception state, vector"
vector 221 HelloTest.mote[21].wlan[0].radio receptionState:vector ETV
attr interpolationmode sample-hold
attr source receptionStateChanged
attr title "Radio reception state, vector"
vector 222 HelloTest.mote[22].wlan[0].radio receptionState:vector ETV
attr interpolationmode sample-hold
attr source receptionStateChanged
attr title "Radio reception state, vector"
vector 223 HelloTest.mote[23].wlan[0].radio receptionState:vector ETV
attr interpolationmode sample-hold
attr source receptionStateChanged
attr title "Radio reception state, vector"
vector 224 HelloTest.mote[24].wlan[0].radio receptionState:vector ETV
attr interpolationmode sample-hold
attr source receptionStateChanged
attr title "Radio reception state, vector"
vector 225 HelloTest.mote[25].wlan[0].radio receptionState:vector ETV
attr interpolationmode sample-hold
attr source receptionStateChanged
attr title "Radio reception state, vector"
vector 226 HelloTest.mote[26].wlan[0].radio receptionState:vector ETV
attr interpolationmode sample-hold
attr source receptionStateChanged
attr title "Radio reception state, vector"
vector 227 HelloTest.mote[27].wlan[0].radio receptionState:vector ETV
attr interpolationmode sample-hold
attr source receptionStateChanged
attr title "Radio reception state, vector"
vector 228 HelloTest.mote[28].wlan[0].radio receptionState:vector ETV
attr interpolationmode sample-hold
attr source receptionStateChanged
attr title "Radio reception state, vector"
vector 229 HelloTest.mote[29].wlan[0].radio receptionState:vector ETV
attr interpolationmode sample-hold
attr source receptionStateChanged
attr title "Radio reception state, vector"
vector 230 HelloTest.mote[30].wlan[0].radio receptionState:vector ETV
attr interpolationmode sample-hold
attr source receptionStateChanged
attr title "Radio reception state, vector"
vector 231 HelloTest.mote[31].wlan[0].radio receptionState:vector ETV
attr interpolationmode sample-hold
attr source receptionStateChanged
attr title "Radio reception state, vector"
vector 232 HelloTest.mote[32].wlan[0].radio receptionState:vector ETV
attr interpolationmode sample-hold
attr source receptionStateChanged
attr title "Radio reception state, vector"
vector 233 HelloTest.mote[33].wlan[0].radio receptionState:vector ETV
attr interpolationmode sample-hold
attr source receptionStateChanged
attr title "Radio reception state, vector"
vector 234 HelloTest.mote[34].wlan[0].radio receptionState:vector ETV
attr interpolationmode sample-hold
attr source receptionStateChanged
attr title "Radio reception state, vector"
vector 235 HelloTest.mote[35].wlan[0].radio receptionState:vector ETV
attr interpolationmode sample-hold
attr source receptionStateChanged
attr title "Radio reception state, vector"
vector 236 HelloTest.mote[36].wlan[0].radio receptionState:vector ETV
attr interpolationmode sample-hold
attr source receptionStateChanged
attr title "Radio reception state, vector"
vector 237 HelloTest.mote[37].wlan[0].radio receptionState:vector ETV
attr interpolationmode sample-hold
attr source receptionStateChanged
attr title "Radio reception state, vector"
vector 238 HelloTest.mote[38].wlan[0].radio receptionState:vector ETV
attr interpolationmode sample-hold
attr source receptionStateChanged
attr title "Radio reception state, vector"
vector 239 HelloTest.mote[39].wlan[0].radio receptionState:vector ETV
attr interpolationmode sample-hold
attr source receptionStateChanged
attr title "Radio reception state, vector"
vector 240 HelloTest.mote[40].wlan[0].radio receptionState:vector ETV
attr interpolationmode sample-hold
attr source receptionStateChanged
attr title "Radio reception state, vector"
vector 241 HelloTest.mote[41].wlan[0].radio receptionState:vector ETV
attr interpolationmode sample-hold
attr source receptionStateChanged
attr title "Radio reception state, vector"
vector 242 HelloTest.mote[42].wlan[0].radio receptionState:vector ETV
attr interpolationmode sample-hold
attr source receptionStateChanged
attr title "Radio reception state, vector"
vector 243 HelloTest.mote[43].wlan[0].radio receptionState:vector ETV
attr interpolationmode sample-hold
attr source receptionStateChanged
attr title "Radio reception state, vector"
vector 244 HelloTest.mote[44].wlan[0].radio receptionState:vector ETV
attr interpolationmode sample-hold
attr source receptionStateChanged
attr title "Radio reception state, vector"
vector 245 HelloTest.mote[45].wlan[0].radio receptionState:vector ETV
attr interpolationmode sample-hold
attr source receptionStateChanged
attr title "Radio reception state, vector"
vector 246 HelloTest.mote[46].wlan[0].radio receptionState:vector ETV
attr interpolationmode sample-hold
attr source receptionStateChanged
attr title "Radio reception state, vector"
vector 247 HelloTest.mote[47].wlan[0].radio receptionState:vector ETV
attr interpolationmode sample-hold
attr source receptionStateChanged
attr title "Radio reception state, vector"
vector 248 HelloTest.mote[48].wlan[0].radio receptionState:vector ETV
attr interpolationmode sample-hold
attr source receptionStateChanged
attr title "Radio reception state, vector"
vector 249 HelloTest.mote[49].wlan[0].radio receptionState:vector ETV
attr interpolationmode sample-hold
attr source receptionStateChanged
attr title "Radio reception state, vector"
vector 250 HelloTest.mote[50].wlan[0].radio receptionState:vector ETV
attr interpolationmode sample-hold
attr source receptionStateChanged
attr title "Radio reception state, vector"
vector 251 HelloTest.mote[51].wlan[0].radio receptionState:vector ETV
attr interpolationmode sample-hold
attr source receptionStateChanged
attr title "Radio reception state, vector"
vector 252 HelloTest.mote[52].wlan[0].radio receptionState:vector ETV
attr interpolationmode sample-hold
attr source receptionStateChanged
attr title "Radio reception state, vector"
vector 253 HelloTest.mote[53].wlan[0].radio receptionState:vector ETV
attr interpolationmode sample-hold
attr source receptionStateChanged
attr title "Radio reception state, vector"
vector 254 HelloTest.mote[54].wlan[0].radio receptionState:vector ETV
attr interpolationmode sample-hold
attr source receptionStateChanged
attr title "Radio reception state, vector"
vector 255 HelloTest.mote[55].wlan[0].radio receptionState:vector ETV
attr interpolationmode sample-hold
attr source receptionStateChanged
attr title "Radio reception state, vector"
vector 256 HelloTest.mote[56].wlan[0].radio receptionState:vector ETV
attr interpolationmode sample-hold
attr source receptionStateChanged
attr title "Radio reception state, vector"
vector 257 HelloTest.mote[57].wlan[0].radio receptionState:vector ETV
attr interpolationmode sample-hold
attr source receptionStateChanged
attr title "Radio reception state, vector"
vector 258 HelloTest.mote[58].wlan[0].radio receptionState:vector ETV
attr interpolationmode sample-hold
attr source receptionStateChanged
attr title "Radio reception state, vector"
vector 259 HelloTest.mote[59].wlan[0].radio receptionState:vector ETV
attr interpolationmode sample-hold
attr source receptionStateChanged
attr title "Radio reception state, vector"
vector 260 HelloTest.mote[60].wlan[0].radio receptionState:vector ETV
attr interpolationmode sample-hold
attr source receptionStateChanged
attr title "Radio reception state, vector"
vector 261 HelloTest.mote[61].wlan[0].radio receptionState:vector ETV
attr interpolationmode sample-hold
attr source receptionStateChanged
attr title "Radio reception state, vector"
vector 262 HelloTest.mote[62].wlan[0].radio receptionState:vector ETV
attr interpolationmode sample-hold
attr source receptionStateChanged
attr title "Radio reception state, vector"
vector 263 HelloTest.mote[63].wlan[0].radio receptionState:vector ETV
attr interpolationmode sample-hold
attr source receptionStateChanged
attr title "Radio reception state, vector"
vector 264 HelloTest.mote[64].wlan[0].radio receptionState:vector ETV
attr interpolationmode sample-hold
attr source receptionStateChanged
attr title "Radio reception state, vector"
vector 265 HelloTest.mote[65].wlan[0].radio receptionState:vector ETV
attr interpolationmode sample-hold
attr source receptionStateChanged
attr title "Radio reception state, vector"
vector 266 HelloTest.mote[66].wlan[0].radio receptionState:vector ETV
attr interpolationmode sample-hold
attr source receptionStateChanged
attr title "Radio reception state, vector"
vector 267 HelloTest.mote[67].wlan[0].radio receptionState:vector ETV
attr interpolationmode sample-hold
attr source receptionStateChanged
attr title "Radio reception state, vector"
vector 268 HelloTest.mote[68].wlan[0].radio receptionState:vector ETV
attr interpolationmode sample-hold
attr source receptionStateChanged
attr title "Radio reception state, vector"
vector 269 HelloTest.mote[69].wlan[0].radio receptionState:vector ETV
attr interpolationmode sample-hold
attr source receptionStateChanged
attr title "Radio reception state, vector"
vector 270 HelloTest.mote[70].wlan[0].radio receptionState:vector ETV
attr interpolationmode sample-hold
attr source receptionStateChanged
attr title "Radio reception state, vector"
vector 271 HelloTest.mote[71].wlan[0].radio receptionState:vector ETV
attr interpolationmode sample-hold
attr source receptionStateChanged
attr title "Radio reception state, vector"
vector 272 HelloTest.mote[72].wlan[0].radio receptionState:vector ETV
attr interpolationmode sample-hold
attr source receptionStateChanged
attr title "Radio reception state, vector"
vector 273 HelloTest.mote[73].wlan[0].radio receptionState:vector ETV
attr interpolationmode sample-hold
attr source receptionStateChanged
attr title "Radio reception state, vector"
vector 274 HelloTest.mote[74].wlan[0].radio receptionState:vector ETV
attr interpolationmode sample-hold
attr source receptionStateChanged
attr title "Radio reception state, vector"
vector 275 HelloTest.mote[75].wlan[0].radio receptionState:vector ETV
attr interpolationmode sample-hold
attr source receptionStateChanged
attr title "Radio reception state, vector"
vector 276 HelloTest.mote[76].wlan[0].radio receptionState:vector ETV
attr interpolationmode sample-hold
attr source receptionStateChanged
attr title "Radio reception state, vector"
vector 277 HelloTest.mote[77].wlan[0].radio receptionState:vector ETV
attr interpolationmode sample-hold
attr source receptionStateChanged
attr title "Radio reception state, vector"
vector 278 HelloTest.mote[78].wlan[0].radio receptionState:vector ETV
attr interpolationmode sample-hold
attr source receptionStateChanged
attr title "Radio reception state, vector"
vector 279 HelloTest.mote[79].wlan[0].radio receptionState:vector ETV
attr interpolationmode sample-hold
attr source receptionStateChanged
attr title "Radio reception state, vector"
vector 280 HelloTest.mote[80].wlan[0].radio receptionState:vector ETV
attr interpolationmode sample-hold
attr source receptionStateChanged
attr title "Radio reception state, vector"
vector 281 HelloTest.mote[81].wlan[0].radio receptionState:vector ETV
attr interpolationmode sample-hold
attr source receptionStateChanged
attr title "Radio reception state, vector"
vector 282 HelloTest.mote[82].wlan[0].radio receptionState:vector ETV
attr interpolationmode sample-hold
attr source receptionStateChanged
attr title "Radio reception state, vector"
vector 283 HelloTest.mote[83].wlan[0].radio receptionState:vector ETV
attr interpolationmode sample-hold
attr source receptionStateChanged
attr title "Radio reception state, vector"
vector 284 HelloTest.mote[84].wlan[0].radio receptionState:vector ETV
attr interpolationmode sample-hold
attr source receptionStateChanged
attr title "Radio reception state, vector"
vector 285 HelloTest.mote[85].wlan[0].radio receptionState:vector ETV
attr interpolationmode sample-hold
attr source receptionStateChanged
attr title "Radio reception state, vector"
vector 286 HelloTest.mote[86].wlan[0].radio receptionState:vector ETV
attr interpolationmode sample-hold
attr source receptionStateChanged
attr title "Radio reception state, vector"
vector 287 HelloTest.mote[87].wlan[0].radio receptionState:vector ETV
attr interpolationmode sample-hold
attr source receptionStateChanged
attr title "Radio reception state, vector"
vector 288 HelloTest.mote[88].wlan[0].radio receptionState:vector ETV
attr interpolationmode sample-hold
attr source receptionStateChanged
attr title "Radio reception state, vector"
vector 289 HelloTest.mote[89].wlan[0].radio receptionState:vector ETV
attr interpolationmode sample-hold
attr source receptionStateChanged
attr title "Radio reception state, vector"
vector 290 HelloTest.mote[90].wlan[0].radio receptionState:vector ETV
attr interpolationmode sample-hold
attr source receptionStateChanged
attr title "Radio reception state, vector"
vector 291 HelloTest.mote[91].wlan[0].radio receptionState:vector ETV
attr interpolationmode sample-hold
attr source receptionStateChanged
attr title "Radio reception state, vector"
vector 292 HelloTest.mote[92].wlan[0].radio receptionState:vector ETV
attr interpolationmode sample-hold
attr source receptionStateChanged
attr title "Radio reception state, vector"
vector 293 HelloTest.mote[93].wlan[0].radio receptionState:vector ETV
attr interpolationmode sample-hold
attr source receptionStateChanged
attr title "Radio reception state, vector"
vector 294 HelloTest.mote[94].wlan[0].radio receptionState:vector ETV
attr interpolationmode sample-hold
attr source receptionStateChanged
attr title "Radio reception state, vector"
vector 295 HelloTest.mote[95].wlan[0].radio receptionState:vector ETV
attr interpolationmode sample-hold
attr source receptionStateChanged
attr title "Radio reception state, vector"
vector 296 HelloTest.mote[96].wlan[0].radio receptionState:vector ETV
attr interpolationmode sample-hold
attr source receptionStateChanged
attr title "Radio reception state, vector"
vector 297 HelloTest.mote[97].wlan[0].radio receptionState:vector ETV
attr interpolationmode sample-hold
attr source receptionStateChanged
attr title "Radio reception state, vector"
vector 298 HelloTest.mote[98].wlan[0].radio receptionState:vector ETV
attr interpolationmode sample-hold
attr source receptionStateChanged
attr title "Radio reception state, vector"
vector 299 HelloTest.mote[99].wlan[0].radio receptionState:vector ETV
attr interpolationmode sample-hold
attr source receptionStateChanged
attr title "Radio reception state, vector"
vector 300 HelloTest.mote[0].wlan[0].mac.dcf.recoveryProcedure contentionWindowChanged:vector ETV
attr interpolationmode sample-hold
attr title "contention window, vector"
vector 301 HelloTest.mote[1].wlan[0].mac.dcf.recoveryProcedure contentionWindowChanged:vector ETV
attr interpolationmode sample-hold
attr title "contention window, vector"
vector 302 HelloTest.mote[2].wlan[0].mac.dcf.recoveryProcedure contentionWindowChanged:vector ETV
attr interpolationmode sample-hold
attr title "contention window, vector"
vector 303 HelloTest.mote[3].wlan[0].mac.dcf.recoveryProcedure contentionWindowChanged:vector ETV
attr interpolationmode sample-hold
attr title "contention window, vector"
vector 304 HelloTest.mote[4].wlan[0].mac.dcf.recoveryProcedure contentionWindowChanged:vector ETV
attr interpolationmode sample-hold
attr title "contention window, vector"
vector 305 HelloTest.mote[5].wlan[0].mac.dcf.recoveryProcedure contentionWindowChanged:vector ETV
attr interpolationmode sample-hold
attr title "contention window, vector"
vector 306 HelloTest.mote[6].wlan[0].mac.dcf.recoveryProcedure contentionWindowChanged:vector ETV
attr interpolationmode sample-hold
attr title "contention window, vector"
vector 307 HelloTest.mote[7].wlan[0].mac.dcf.recoveryProcedure contentionWindowChanged:vector ETV
attr interpolationmode sample-hold
attr title "contention window, vector"
vector 308 HelloTest.mote[8].wlan[0].mac.dcf.recoveryProcedure contentionWindowChanged:vector ETV
attr interpolationmode sample-hold
attr title "contention window, vector"
vector 309 HelloTest.mote[9].wlan[0].mac.dcf.recoveryProcedure contentionWindowChanged:vector ETV
attr interpolationmode sample-hold
attr title "contention window, vector"
vector 310 HelloTest.mote[10].wlan[0].mac.dcf.recoveryProcedure contentionWindowChanged:vector ETV
attr interpolationmode sample-hold
attr title "contention window, vector"
vector 311 HelloTest.mote[11].wlan[0].mac.dcf.recoveryProcedure contentionWindowChanged:vector ETV
attr interpolationmode sample-hold
attr title "contention window, vector"
vector 312 HelloTest.mote[12].wlan[0].mac.dcf.recoveryProcedure contentionWindowChanged:vector ETV
attr interpolationmode sample-hold
attr title "contention window, vector"
vector 313 HelloTest.mote[13].wlan[0].mac.dcf.recoveryProcedure contentionWindowChanged:vector ETV
attr interpolationmode sample-hold
attr title "contention window, vector"
vector 314 HelloTest.mote[14].wlan[0].mac.dcf.recoveryProcedure contentionWindowChanged:vector ETV
attr interpolationmode sample-hold
attr title "contention window, vector"
vector 315 HelloTest.mote[15].wlan[0].mac.dcf.recoveryProcedure contentionWindowChanged:vector ETV
attr interpolationmode sample-hold
attr title "contention window, vector"
vector 316 HelloTest.mote[16].wlan[0].mac.dcf.recoveryProcedure contentionWindowChanged:vector ETV
attr interpolationmode sample-hold
attr title "contention window, vector"
vector 317 HelloTest.mote[17].wlan[0].mac.dcf.recoveryProcedure contentionWindowChanged:vector ETV
attr interpolationmode sample-hold
attr title "contention window, vector"
vector 318 HelloTest.mote[18].wlan[0].mac.dcf.recoveryProcedure contentionWindowChanged:vector ETV
attr interpolationmode sample-hold
attr title "contention window, vector"
vector 319 HelloTest.mote[19].wlan[0].mac.dcf.recoveryProcedure contentionWindowChanged:vector ETV
attr interpolationmode sample-hold
attr title "contention window, vector"
vector 320 HelloTest.mote[20].wlan[0].mac.dcf.recoveryProcedure contentionWindowChanged:vector ETV
attr interpolationmode sample-hold
attr title "contention window, vector"
vector 321 HelloTest.mote[21].wlan[0].mac.dcf.recoveryProcedure contentionWindowChanged:vector ETV
attr interpolationmode sample-hold
attr title "contention window, vector"
vector 322 HelloTest.mote[22].wlan[0].mac.dcf.recoveryProcedure contentionWindowChanged:vector ETV
attr interpolationmode sample-hold
attr title "contention window, vector"
vector 323 HelloTest.mote[23].wlan[0].mac.dcf.recoveryProcedure contentionWindowChanged:vector ETV
attr interpolationmode sample-hold
attr title "contention window, vector"
vector 324 HelloTest.mote[24].wlan[0].mac.dcf.recoveryProcedure contentionWindowChanged:vector ETV
attr interpolationmode sample-hold
attr title "contention window, vector"
vector 325 HelloTest.mote[25].wlan[0].mac.dcf.recoveryProcedure contentionWindowChanged:vector ETV
attr interpolationmode sample-hold
attr title "contention window, vector"
vector 326 HelloTest.mote[26].wlan[0].mac.dcf.recoveryProcedure contentionWindowChanged:vector ETV
attr interpolationmode sample-hold
attr title "contention window, vector"
vector 327 HelloTest.mote[27].wlan[0].mac.dcf.recoveryProcedure contentionWindowChanged:vector ETV
attr interpolationmode sample-hold
attr title "contention window, vector"
vector 328 HelloTest.mote[28].wlan[0].mac.dcf.recoveryProcedure contentionWindowChanged:vector ETV
attr interpolationmode sample-hold
attr title "contention window, vector"
vector 329 HelloTest.mote[29].wlan[0].mac.dcf.recoveryProcedure contentionWindowChanged:vector ETV
attr interpolationmode sample-hold
attr title "contention window, vector"
vector 330 HelloTest.mote[30].wlan[0].mac.dcf.recoveryProcedure contentionWindowChanged:vector ETV
attr interpolationmode sample-hold
attr title "contention window, vector"
vector 331 HelloTest.mote[31].wlan[0].mac.dcf.recoveryProcedure contentionWindowChanged:vector ETV
attr interpolationmode sample-hold
attr title "contention window, vector"
vector 332 HelloTest.mote[32].wlan[0].mac.dcf.recoveryProcedure contentionWindowChanged:vector ETV
attr interpolationmode sample-hold
attr title "contention window, vector"
vector 333 HelloTest.mote[33].wlan[0].mac.dcf.recoveryProcedure contentionWindowChanged:vector ETV
attr interpolationmode sample-hold
attr title "contention window, vector"
vector 334 HelloTest.mote[34].wlan[0].mac.dcf.recoveryProcedure contentionWindowChanged:vector ETV
attr interpolationmode sample-hold
attr title "contention window, vector"
vector 335 HelloTest.mote[35].wlan[0].mac.dcf.recoveryProcedure contentionWindowChanged:vector ETV
attr interpolationmode sample-hold
attr title "contention window, vector"
vector 336 HelloTest.mote[36].wlan[0].mac.dcf.recoveryProcedure contentionWindowChanged:vector ETV
attr interpolationmode sample-hold
attr title "contention window, vector"
vector 337 HelloTest.mote[37].wlan[0].mac.dcf.recoveryProcedure contentionWindowChanged:vector ETV
attr interpolationmode sample-hold
attr title "contention window, vector"
vector 338 HelloTest.mote[38].wlan[0].mac.dcf.recoveryProcedure contentionWindowChanged:vector ETV
attr interpolationmode sample-hold
attr title "contention window, vector"
vector 339 HelloTest.mote[39].wlan[0].mac.dcf.recoveryProcedure contentionWindowChanged:vector ETV
attr interpolationmode sample-hold
attr title "contention window, vector"
vector 340 HelloTest.mote[40].wlan[0].mac.dcf.recoveryProcedure contentionWindowChanged:vector ETV
attr interpolationmode sample-hold
attr title "contention window, vector"
vector 341 HelloTest.mote[41].wlan[0].mac.dcf.recoveryProcedure contentionWindowChanged:vector ETV
attr interpolationmode sample-hold
attr title "contention window, vector"
vector 342 HelloTest.mote[42].wlan[0].mac.dcf.recoveryProcedure contentionWindowChanged:vector ETV
attr interpolationmode sample-hold
attr title "contention window, vector"
vector 343 HelloTest.mote[43].wlan[0].mac.dcf.recoveryProcedure contentionWindowChanged:vector ETV
attr interpolationmode sample-hold
attr title "contention window, vector"
vector 344 HelloTest.mote[44].wlan[0].mac.dcf.recoveryProcedure contentionWindowChanged:vector ETV
attr interpolationmode sample-hold
attr title "contention window, vector"
vector 345 HelloTest.mote[45].wlan[0].mac.dcf.recoveryProcedure contentionWindowChanged:vector ETV
attr interpolationmode sample-hold
attr title "contention window, vector"
vector 346 HelloTest.mote[46].wlan[0].mac.dcf.recoveryProcedure contentionWindowChanged:vector ETV
attr interpolationmode sample-hold
attr title "contention window, vector"
vector 347 HelloTest.mote[47].wlan[0].mac.dcf.recoveryProcedure contentionWindowChanged:vector ETV
attr interpolationmode sample-hold
attr title "contention window, vector"
vector 348 HelloTest.mote[48].wlan[0].mac.dcf.recoveryProcedure contentionWindowChanged:vector ETV
attr interpolationmode sample-hold
attr title "contention window, vector"
vector 349 HelloTest.mote[49].wlan[0].mac.dcf.recoveryProcedure contentionWindowChanged:vector ETV
attr interpolationmode sample-hold
attr title "contention window, vector"
vector 350 HelloTest.mote[50].wlan[0].mac.dcf.recoveryProcedure contentionWindowChanged:vector ETV
attr interpolationmode sample-hold
attr title "contention window, vector"
vector 351 HelloTest.mote[51].wlan[0].mac.dcf.recoveryProcedure contentionWindowChanged:vector ETV
attr interpolationmode sample-hold
attr title "contention window, vector"
vector 352 HelloTest.mote[52].wlan[0].mac.dcf.recoveryProcedure contentionWindowChanged:vector ETV
attr interpolationmode sample-hold
attr title "contention window, vector"
vector 353 HelloTest.mote[53].wlan[0].mac.dcf.recoveryProcedure contentionWindowChanged:vector ETV
attr interpolationmode sample-hold
attr title "contention window, vector"
vector 354 HelloTest.mote[54].wlan[0].mac.dcf.recoveryProcedure contentionWindowChanged:vector ETV
attr interpolationmode sample-hold
attr title "contention window, vector"
vector 355 HelloTest.mote[55].wlan[0].mac.dcf.recoveryProcedure contentionWindowChanged:vector ETV
attr interpolationmode sample-hold
attr title "contention window, vector"
vector 356 HelloTest.mote[56].wlan[0].mac.dcf.recoveryProcedure contentionWindowChanged:vector ETV
attr interpolationmode sample-hold
attr title "contention window, vector"
vector 357 HelloTest.mote[57].wlan[0].mac.dcf.recoveryProcedure contentionWindowChanged:vector ETV
attr interpolationmode sample-hold
attr title "contention window, vector"
vector 358 HelloTest.mote[58].wlan[0].mac.dcf.recoveryProcedure contentionWindowChanged:vector ETV
attr interpolationmode sample-hold
attr title "contention window, vector"
vector 359 HelloTest.mote[59].wlan[0].mac.dcf.recoveryProcedure contentionWindowChanged:vector ETV
attr interpolationmode sample-hold
attr title "contention window, vector"
vector 360 HelloTest.mote[60].wlan[0].mac.dcf.recoveryProcedure contentionWindowChanged:vector ETV
attr interpolationmode sample-hold
attr title "contention window, vector"
vector 361 HelloTest.mote[61].wlan[0].mac.dcf.recoveryProcedure contentionWindowChanged:vector ETV
attr interpolationmode sample-hold
attr title "contention window, vector"
vector 362 HelloTest.mote[62].wlan[0].mac.dcf.recoveryProcedure contentionWindowChanged:vector ETV
attr interpolationmode sample-hold
attr title "contention window, vector"
vector 363 HelloTest.mote[63].wlan[0].mac.dcf.recoveryProcedure contentionWindowChanged:vector ETV
attr interpolationmode sample-hold
attr title "contention window, vector"
vector 364 HelloTest.mote[64].wlan[0].mac.dcf.recoveryProcedure contentionWindowChanged:vector ETV
attr interpolationmode sample-hold
attr title "contention window, vector"
vector 365 HelloTest.mote[65].wlan[0].mac.dcf.recoveryProcedure contentionWindowChanged:vector ETV
attr interpolationmode sample-hold
attr title "contention window, vector"
vector 366 HelloTest.mote[66].wlan[0].mac.dcf.recoveryProcedure contentionWindowChanged:vector ETV
attr interpolationmode sample-hold
attr title "contention window, vector"
vector 367 HelloTest.mote[67].wlan[0].mac.dcf.recoveryProcedure contentionWindowChanged:vector ETV
attr interpolationmode sample-hold
attr title "contention window, vector"
vector 368 HelloTest.mote[68].wlan[0].mac.dcf.recoveryProcedure contentionWindowChanged:vector ETV
attr interpolationmode sample-hold
attr title "contention window, vector"
vector 369 HelloTest.mote[69].wlan[0].mac.dcf.recoveryProcedure contentionWindowChanged:vector ETV
attr interpolationmode sample-hold
attr title "contention window, vector"
vector 370 HelloTest.mote[70].wlan[0].mac.dcf.recoveryProcedure contentionWindowChanged:vector ETV
attr interpolationmode sample-hold
attr title "contention window, vector"
vector 371 HelloTest.mote[71].wlan[0].mac.dcf.recoveryProcedure contentionWindowChanged:vector ETV
attr interpolationmode sample-hold
attr title "contention window, vector"
vector 372 HelloTest.mote[72].wlan[0].mac.dcf.recoveryProcedure contentionWindowChanged:vector ETV
attr interpolationmode sample-hold
attr title "contention window, vector"
vector 373 HelloTest.mote[73].wlan[0].mac.dcf.recoveryProcedure contentionWindowChanged:vector ETV
attr interpolationmode sample-hold
attr title "contention window, vector"
vector 374 HelloTest.mote[74].wlan[0].mac.dcf.recoveryProcedure contentionWindowChanged:vector ETV
attr interpolationmode sample-hold
attr title "contention window, vector"
vector 375 HelloTest.mote[75].wlan[0].mac.dcf.recoveryProcedure contentionWindowChanged:vector ETV
attr interpolationmode sample-hold
attr title "contention window, vector"
vector 376 HelloTest.mote[76].wlan[0].mac.dcf.recoveryProcedure contentionWindowChanged:vector ETV
attr interpolationmode sample-hold
attr title "contention window, vector"
vector 377 HelloTest.mote[77].wlan[0].mac.dcf.recoveryProcedure contentionWindowChanged:vector ETV
attr interpolationmode sample-hold
attr title "contention window, vector"
vector 378 HelloTest.mote[78].wlan[0].mac.dcf.recoveryProcedure contentionWindowChanged:vector ETV
attr interpolationmode sample-hold
attr title "contention window, vector"
vector 379 HelloTest.mote[79].wlan[0].mac.dcf.recoveryProcedure contentionWindowChanged:vector ETV
attr interpolationmode sample-hold
attr title "contention window, vector"
vector 380 HelloTest.mote[80].wlan[0].mac.dcf.recoveryProcedure contentionWindowChanged:vector ETV
attr interpolationmode sample-hold
attr title "contention window, vector"
vector 381 HelloTest.mote[81].wlan[0].mac.dcf.recoveryProcedure contentionWindowChanged:vector ETV
attr interpolationmode sample-hold
attr title "contention window, vector"
vector 382 HelloTest.mote[82].wlan[0].mac.dcf.recoveryProcedure contentionWindowChanged:vector ETV
attr interpolationmode sample-hold
attr title "contention window, vector"
vector 383 HelloTest.mote[83].wlan[0].mac.dcf.recoveryProcedure contentionWindowChanged:vector ETV
attr interpolationmode sample-hold
attr title "contention window, vector"
vector 384 HelloTest.mote[84].wlan[0].mac.dcf.recoveryProcedure contentionWindowChanged:vector ETV
attr interpolationmode sample-hold
attr title "contention window, vector"
vector 385 HelloTest.mote[85].wlan[0].mac.dcf.recoveryProcedure contentionWindowChanged:vector ETV
attr interpolationmode sample-hold
attr title "contention window, vector"
vector 386 HelloTest.mote[86].wlan[0].mac.dcf.recoveryProcedure contentionWindowChanged:vector ETV
attr interpolationmode sample-hold
attr title "contention window, vector"
vector 387 HelloTest.mote[87].wlan[0].mac.dcf.recoveryProcedure contentionWindowChanged:vector ETV
attr interpolationmode sample-hold
attr title "contention window, vector"
vector 388 HelloTest.mote[88].wlan[0].mac.dcf.recoveryProcedure contentionWindowChanged:vector ETV
attr interpolationmode sample-hold
attr title "contention window, vector"
vector 389 HelloTest.mote[89].wlan[0].mac.dcf.recoveryProcedure contentionWindowChanged:vector ETV
attr interpolationmode sample-hold
attr title "contention window, vector"
vector 390 HelloTest.mote[90].wlan[0].mac.dcf.recoveryProcedure contentionWindowChanged:vector ETV
attr interpolationmode sample-hold
attr title "contention window, vector"
vector 391 HelloTest.mote[91].wlan[0].mac.dcf.recoveryProcedure contentionWindowChanged:vector ETV
attr interpolationmode sample-hold
attr title "contention window, vector"
vector 392 HelloTest.mote[92].wlan[0].mac.dcf.recoveryProcedure contentionWindowChanged:vector ETV
attr interpolationmode sample-hold
attr title "contention window, vector"
vector 393 HelloTest.mote[93].wlan[0].mac.dcf.recoveryProcedure contentionWindowChanged:vector ETV
attr interpolationmode sample-hold
attr title "contention window, vector"
vector 394 HelloTest.mote[94].wlan[0].mac.dcf.recoveryProcedure contentionWindowChanged:vector ETV
attr interpolationmode sample-hold
attr title "contention window, vector"
vector 395 HelloTest.mote[95].wlan[0].mac.dcf.recoveryProcedure contentionWindowChanged:vector ETV
attr interpolationmode sample-hold
attr title "contention window, vector"
vector 396 HelloTest.mote[96].wlan[0].mac.dcf.recoveryProcedure contentionWindowChanged:vector ETV
attr interpolationmode sample-hold
attr title "contention window, vector"
vector 397 HelloTest.mote[97].wlan[0].mac.dcf.recoveryProcedure contentionWindowChanged:vector ETV
attr interpolationmode sample-hold
attr title "contention window, vector"
vector 398 HelloTest.mote[98].wlan[0].mac.dcf.recoveryProcedure contentionWindowChanged:vector ETV
attr interpolationmode sample-hold
attr title "contention window, vector"
vector 399 HelloTest.mote[99].wlan[0].mac.dcf.recoveryProcedure contentionWindowChanged:vector ETV
attr interpolationmode sample-hold
attr title "contention window, vector"
vector 400 HelloTest.mote[17].wlan[0].mac packetReceivedFromUpper:vector(packetBytes) ETV
attr interpolationmode none
attr title "packets received from upper layer, vector(packetBytes)"
vector 401 HelloTest.mote[17].wlan[0].mac.dcf.channelAccess.pendingQueue packetPushed:vector(packetBytes) ETV
attr interpolationmode none
attr title "packet pushed, vector(packetBytes)"
vector 402 HelloTest.mote[17].wlan[0].mac.dcf.channelAccess.pendingQueue queueLength:vector ETV
attr interpolationmode sample-hold
attr source "count(packetPushed) - count(packetPopped) - count(packetRemoved) - count(packetDropped)"
attr title "queue length, vector"
vector 403 HelloTest.mote[17].wlan[0].mac.dcf.channelAccess.contention backoffPeriodGenerated:vector ETV
attr interpolationmode none
attr title "backoff periods, vector"
vector 404 HelloTest.mote[17].wlan[0].mac.dcf.channelAccess.contention backoffActive:vector ETV
attr interpolationmode sample-hold
attr source count(backoffStarted)-count(backoffStopped)
attr title "backoff active, vector"
vector 405 HelloTest.mote[17].wlan[0].mac.dcf.channelAccess.pendingQueue packetPopped:vector(packetBytes) ETV
attr interpolationmode none
attr title "packet popped, vector(packetBytes)"
vector 406 HelloTest.mote[17].wlan[0].mac.dcf.channelAccess.pendingQueue queueingTime:vector ETV
attr interpolationmode none
attr source queueingTime(packetPopped)
attr title "queueing times, vector"
attr unit s
vector 407 HelloTest.mote[17].wlan[0].mac.dcf.channelAccess.inProgressFrames queueLength:vector ETV
attr interpolationmode sample-hold
attr source "count(packetEnqueued) - count(packetDequeued)"
attr title "queue length, vector"
vector 408 HelloTest.mote[17].wlan[0].mac.dcf datarateSelected:vector ETV
attr interpolationmode none
attr title "datarates selected, vector"
vector 409 HelloTest.mote[17].wlan[0].mac packetSentToLower:vector(packetBytes) ETV
attr interpolationmode none
attr title "packets sent to lower layer, vector(packetBytes)"
vector 410 HelloTest.mote[17].wlan[0].mac.dcf frameSequenceActive:vector ETV
attr interpolationmode sample-hold
attr source count(frameSequenceStarted)-count(frameSequenceFinished)
attr title "frame sequence active, vector"
vector 411 HelloTest.mote[17].wlan[0].radio transmissionState:vector ETV
attr interpolationmode sample-hold
attr source transmissionStateChanged
attr title "Radio transmission state, vector"
vector 412 HelloTest.mote[17].wlan[0].mac.dcf packetSentToPeer:vector(packetBytes) ETV
attr interpolationmode none
attr title "packets sent, vector(packetBytes)"
vector 413 HelloTest.mote[17].wlan[0].mac.dcf packetSentToPeerMulticast:vector(packetBytes) ETV
attr interpolationmode none
attr source ieee80211Multicast(packetSentToPeer)
attr title "packets sent: multicast, vector(packetBytes)"
vector 414 HelloTest.mote[17].wlan[0].mac.dcf packetSentToPeerBroadcast:vector(packetBytes) ETV
attr interpolationmode none
attr source ieee80211Broadcast(packetSentToPeer)
attr title "packets sent: broadcast , vector(packetBytes)"
vector 415 HelloTest.mote[17].wlan[0].mac.dcf packetSentToPeerWithoutRetry:vector(packetBytes) ETV
attr interpolationmode none
attr source ieee80211NotRetry(packetSentToPeer)
attr title "packets sent: without retry, vector(packetBytes)"
vector 416 HelloTest.mote[17].wlan[0].mac.dcf.channelAccess.inProgressFrames queueingTime:vector ETV
attr interpolationmode none
attr source queueingTime(packetDequeued)
attr title "queueing times, vector"
vector 417 HelloTest.mote[27].wlan[0].mac packetReceivedFromLower:vector(packetBytes) ETV
attr interpolationmode none
attr title "packets received from lower layer, vector(packetBytes)"
vector 418 HelloTest.mote[27].wlan[0].mac.dcf packetReceivedFromPeer:vector(packetBytes) ETV
attr interpolationmode none
attr title "packets received, vector(packetBytes)"
vector 419 HelloTest.mote[27].wlan[0].mac.dcf packetReceivedFromPeerMulticast:vector(packetBytes) ETV
attr interpolationmode none
attr source ieee80211Multicast(packetReceivedFromPeer)
attr title "packets received: multicast, vector(packetBytes)"
vector 420 HelloTest.mote[27].wlan[0].mac.dcf packetReceivedFromPeerBroadcast:vector(packetBytes) ETV
attr interpolationmode none
attr source ieee80211Broadcast(packetReceivedFromPeer)
attr title "packets received: broadcast, vector(packetBytes)"
vector 421 HelloTest.mote[27].wlan[0].mac.dcf packetReceivedFromPeerWithoutRetry:vector(packetBytes) ETV
attr interpolationmode none
attr source ieee80211NotRetry(packetReceivedFromPeer)
attr title "packets received: without retry, vector(packetBytes)"
vector 422 HelloTest.mote[27].wlan[0].mac packetSentToUpper:vector(packetBytes) ETV
attr interpolationmode none
attr title "packets sent to upper layer, vector(packetBytes)"
vector 423 HelloTest.mote[16].wlan[0].mac packetReceivedFromLower:vector(packetBytes) ETV
attr interpolationmode none
attr title "packets received from lower layer, vector(packetBytes)"
vector 424 HelloTest.mote[16].wlan[0].mac.dcf packetReceivedFromPeer:vector(packetBytes) ETV
attr interpolationmode none
attr title "packets received, vector(packetBytes)"
vector 425 HelloTest.mote[16].wlan[0].mac.dcf packetReceivedFromPeerMulticast:vector(packetBytes) ETV
attr interpolationmode none
attr source ieee80211Multicast(packetReceivedFromPeer)
attr title "packets received: multicast, vector(packetBytes)"
vector 426 HelloTest.mote[16].wlan[0].mac.dcf packetReceivedFromPeerBroadcast:vector(packetBytes) ETV
attr interpolationmode none
attr source ieee80211Broadcast(packetReceivedFromPeer)
attr title "packets received: broadcast, vector(packetBytes)"
vector 427 HelloTest.mote[16].wlan[0].mac.dcf packetReceivedFromPeerWithoutRetry:vector(packetBytes) ETV
attr interpolationmode none
attr source ieee80211NotRetry(packetReceivedFromPeer)
attr title "packets received: without retry, vector(packetBytes)"
vector 428 HelloTest.mote[16].wlan[0].mac packetSentToUpper:vector(packetBytes) ETV
attr interpolationmode none
attr title "packets sent to upper layer, vector(packetBytes)"
vector 429 HelloTest.mote[7].wlan[0].mac packetReceivedFromLower:vector(packetBytes) ETV
attr interpolationmode none
attr title "packets received from lower layer, vector(packetBytes)"
vector 430 HelloTest.mote[7].wlan[0].mac.dcf packetReceivedFromPeer:vector(packetBytes) ETV
attr interpolationmode none
attr title "packets received, vector(packetBytes)"
vector 431 HelloTest.mote[7].wlan[0].mac.dcf packetReceivedFromPeerMulticast:vector(packetBytes) ETV
attr interpolationmode none
attr source ieee80211Multicast(packetReceivedFromPeer)
attr title "packets received: multicast, vector(packetBytes)"
vector 432 HelloTest.mote[7].wlan[0].mac.dcf packetReceivedFromPeerBroadcast:vector(packetBytes) ETV
attr interpolationmode none
attr source ieee80211Broadcast(packetReceivedFromPeer)
attr title "packets received: broadcast, vector(packetBytes)"
vector 433 HelloTest.mote[7].wlan[0].mac.dcf packetReceivedFromPeerWithoutRetry:vector(packetBytes) ETV
attr interpolationmode none
attr source ieee80211NotRetry(packetReceivedFromPeer)
attr title "packets received: without retry, vector(packetBytes)"
vector 434 HelloTest.mote[7].wlan[0].mac packetSentToUpper:vector(packetBytes) ETV
attr interpolationmode none
attr title "packets sent to upper layer, vector(packetBytes)"
vector 435 HelloTest.mote[18].wlan[0].mac packetReceivedFromLower:vector(packetBytes) ETV
attr interpolationmode none
attr title "packets received from lower layer, vector(packetBytes)"
vector 436 HelloTest.mote[18].wlan[0].mac.dcf packetReceivedFromPeer:vector(packetBytes) ETV
attr interpolationmode none
attr title "packets received, vector(packetBytes)"
vector 437 HelloTest.mote[18].wlan[0].mac.dcf packetReceivedFromPeerMulticast:vector(packetBytes) ETV
attr interpolationmode none
attr source ieee80211Multicast(packetReceivedFromPeer)
attr title "packets received: multicast, vector(packetBytes)"
vector 438 HelloTest.mote[18].wlan[0].mac.dcf packetReceivedFromPeerBroadcast:vector(packetBytes) ETV
attr interpolationmode none
attr source ieee80211Broadcast(packetReceivedFromPeer)
attr title "packets received: broadcast, vector(packetBytes)"
vector 439 HelloTest.mote[18].wlan[0].mac.dcf packetReceivedFromPeerWithoutRetry:vector(packetBytes) ETV
attr interpolationmode none
attr source ieee80211NotRetry(packetReceivedFromPeer)
attr title "packets received: without retry, vector(packetBytes)"
vector 440 HelloTest.mote[18].wlan[0].mac packetSentToUpper:vector(packetBytes) ETV
attr interpolationmode none
attr title "packets sent to upper layer, vector(packetBytes)"
vector 441 HelloTest.mote[26].wlan[0].mac packetReceivedFromLower:vector(packetBytes) ETV
attr interpolationmode none
attr title "packets received from lower layer, vector(packetBytes)"
vector 442 HelloTest.mote[26].wlan[0].mac.dcf packetReceivedFromPeer:vector(packetBytes) ETV
attr interpolationmode none
attr title "packets received, vector(packetBytes)"
vector 443 HelloTest.mote[26].wlan[0].mac.dcf packetReceivedFromPeerMulticast:vector(packetBytes) ETV
attr interpolationmode none
attr source ieee80211Multicast(packetReceivedFromPeer)
attr title "packets received: multicast, vector(packetBytes)"
vector 444 HelloTest.mote[26].wlan[0].mac.dcf packetReceivedFromPeerBroadcast:vector(packetBytes) ETV
attr interpolationmode none
attr source ieee80211Broadcast(packetReceivedFromPeer)
attr title "packets received: broadcast, vector(packetBytes)"
vector 445 HelloTest.mote[26].wlan[0].mac.dcf packetReceivedFromPeerWithoutRetry:vector(packetBytes) ETV
attr interpolationmode none
attr source ieee80211NotRetry(packetReceivedFromPeer)
[...]
62	99020 27 0 0 0 0 3 0 2 2 4
63	99047 9 0 0 0 0 1 0 0 0 0
64	99056 27 0 0 0 0 3 0 2 2 4
65	99083 9 0 0 0 0 1 0 0 0 0
66	99092 27 0 0 0 0 3 0 2 2 4
67	99119 9 0 0 0 0 1 0 0 0 0
68	99128 27 0 0 0 0 3 0 2 2 4
69	99155 9 0 0 0 0 1 0 0 0 0
70	99164 27 0 0 0 0 3 0 2 2 4
71	99191 9 0 0 0 0 1 0 0 0 0
72	99200 27 0 0 0 0 3 0 2 2 4
73	99227 9 0 0 0 0 1 0 0 0 0
74	99236 27 0 0 0 0 3 0 2 2 4
75	99263 9 0 0 0 0 1 0 0 0 0
76	99272 27 0 0 0 0 3 0 2 2 4
77	99299 9 0 0 0 0 1 0 0 0 0
78	99308 27 0 0 0 0 3 0 2 2 4
79	99335 9 0 0 0 0 1 0 0 0 0
80	99344 27 0 0 0 0 3 0 2 2 4
81	99371 9 0 0 0 0 1 0 0 0 0
82	99380 27 0 0 0 0 3 0 2 2 4
83	99407 9 0 0 0 0 1 0 0 0 0
84	99416 27 0 0 0 0 3 0 2 2 4
85	99443 9 0 0 0 0 1 0 0 0 0
86	99452 27 0 0 0 0 3 0 2 2 4
87	99479 9 0 0 0 0 1 0 0 0 0
88	99488 27 0 0 0 0 3 0 2 2 4
89	99515 9 0 0 0 0 1 0 0 0 0
90	99524 27 0 0 0 0 3 0 2 2 4
91	99551 9 0 0 0 0 1 0 0 0 0
92	99560 27 0 0 0 0 3 0 2 2 4
93	99587 9 0 0 0 0 1 0 0 0 0
94	99596 27 0 0 0 0 3 0 2 2 4
95	99623 9 0 0 0 0 1 0 0 0 0
96	99632 27 0 0 0 0 3 0 2 2 4
97	99659 9 0 0 0 0 1 0 0 0 0
98	99668 27 0 0 0 0 3 0 2 2 4
99	99695 9 0 0 0 0 1 0 0 0 0
100	99704 30 0 0 0 0 3 0 2 2 4
101	99734 10 0 0 0 0 1 0 0 0 0
102	99744 30 0 0 0 0 3 0 2 2 4
103	99774 10 0 0 0 0 1 0 0 0 0
104	99784 30 0 0 0 0 3 0 2 2 4
105	99814 10 0 0 0 0 1 0 0 0 0
106	99824 30 0 0 0 0 3 0 2 2 4
107	99854 10 0 0 0 0 1 0 0 0 0
108	99864 30 0 0 0 0 3 0 2 2 4
109	99894 10 0 0 0 0 1 0 0 0 0
110	99904 30 0 0 0 0 3 0 2 2 4
111	99934 10 0 0 0 0 1 0 0 0 0
112	99944 30 0 0 0 0 3 0 2 2 4
113	99974 10 0 0 0 0 1 0 0 0 0
114	99984 30 0 0 0 0 3 0 2 2 4
115	100014 10 0 0 0 0 1 0 0 0 0
116	100024 30 0 0 0 0 3 0 2 2 4
117	100054 10 0 0 0 0 1 0 0 0 0
118	100064 30 0 0 0 0 3 0 2 2 4
119	100094 10 0 0 0 0 1 0 0 0 0
120	100104 30 0 0 0 0 3 0 2 2 4
121	100134 10 0 0 0 0 1 0 0 0 0
122	100144 30 0 0 0 0 3 0 2 2 4
123	100174 10 0 0 0 0 1 0 0 0 0
124	100184 30 0 0 0 0 3 0 2 2 4
125	100214 10 0 0 0 0 1 0 0 0 0
126	100224 30 0 0 0 0 3 0 2 2 4
127	100254 10 0 0 0 0 1 0 0 0 0
128	100264 30 0 0 0 0 3 0 2 2 4
129	100294 10 0 0 0 0 1 0 0 0 0
130	100304 30 0 0 0 0 3 0 2 2 4
131	100334 10 0 0 0 0 1 0 0 0 0
132	100344 30 0 0 0 0 3 0 2 2 4
133	100374 10 0 0 0 0 1 0 0 0 0
134	100384 30 0 0 0 0 3 0 2 2 4
135	100414 10 0 0 0 0 1 0 0 0 0
136	100424 30 0 0 0 0 3 0 2 2 4
137	100454 10 0 0 0 0 1 0 0 0 0
138	100464 30 0 0 0 0 3 0 2 2 4
139	100494 10 0 0 0 0 1 0 0 0 0
140	100504 30 0 0 0 0 3 0 2 2 4
141	100534 10 0 0 0 0 1 0 0 0 0
142	100544 30 0 0 0 0 3 0 2 2 4
143	100574 10 0 0 0 0 1 0 0 0 0
144	100584 30 0 0 0 0 3 0 2 2 4
145	100614 10 0 0 0 0 1 0 0 0 0
146	100624 30 0 0 0 0 3 0 2 2 4
147	100654 10 0 0 0 0 1 0 0 0 0
148	100664 30 0 0 0 0 3 0 2 2 4
149	100694 10 0 0 0 0 1 0 0 0 0
150	100704 30 0 0 0 0 3 0 2 2 4
151	100734 10 0 0 0 0 1 0 0 0 0
152	100744 30 0 0 0 0 3 0 2 2 4
153	100774 10 0 0 0 0 1 0 0 0 0
154	100784 30 0 0 0 0 3 0 2 2 4
155	100814 10 0 0 0 0 1 0 0 0 0
156	100824 30 0 0 0 0 3 0 2 2 4
157	100854 10 0 0 0 0 1 0 0 0 0
158	100864 30 0 0 0 0 3 0 2 2 4
159	100894 10 0 0 0 0 1 0 0 0 0
160	100904 30 0 0 0 0 3 0 2 2 4
161	100934 10 0 0 0 0 1 0 0 0 0
162	100944 30 0 0 0 0 3 0 2 2 4
163	100974 10 0 0 0 0 1 0 0 0 0
164	100984 30 0 0 0 0 3 0 2 2 4
165	101014 10 0 0 0 0 1 0 0 0 0
166	101024 30 0 0 0 0 3 0 2 2 4
167	101054 10 0 0 0 0 1 0 0 0 0
168	101064 30 0 0 0 0 3 0 2 2 4
169	101094 10 0 0 0 0 1 0 0 0 0
170	101104 30 0 0 0 0 3 0 2 2 4
171	101134 10 0 0 0 0 1 0 0 0 0
172	101144 30 0 0 0 0 3 0 2 2 4
173	101174 10 0 0 0 0 1 0 0 0 0
174	101184 30 0 0 0 0 3 0 2 2 4
175	101214 10 0 0 0 0 1 0 0 0 0
176	101224 30 0 0 0 0 3 0 2 2 4
177	101254 10 0 0 0 0 1 0 0 0 0
178	101264 30 0 0 0 0 3 0 2 2 4
179	101294 10 0 0 0 0 1 0 0 0 0
180	101304 30 0 0 0 0 3 0 2 2 4
181	101334 10 0 0 0 0 1 0 0 0 0
182	101344 30 0 0 0 0 3 0 2 2 4
183	101374 10 0 0 0 0 1 0 0 0 0
184	101384 30 0 0 0 0 3 0 2 2 4
185	101414 10 0 0 0 0 1 0 0 0 0
186	101424 30 0 0 0 0 3 0 2 2 4
187	101454 10 0 0 0 0 1 0 0 0 0
188	101464 30 0 0 0 0 3 0 2 2 4
189	101494 10 0 0 0 0 1 0 0 0 0
190	101504 30 0 0 0 0 3 0 2 2 4
191	101534 10 0 0 0 0 1 0 0 0 0
192	101544 30 0 0 0 0 3 0 2 2 4
193	101574 10 0 0 0 0 1 0 0 0 0
194	101584 30 0 0 0 0 3 0 2 2 4
195	101614 10 0 0 0 0 1 0 0 0 0
196	101624 54 0 100 0 30.3623216087 4 0 3 5 13
197	101678 10 0 0 0 0 1 0 0 0 0
198	101688 30 0 0 0 0 3 0 2 2 4
199	101718 10 0 0 0 0 1 0 0 0 0
200	101728 10 0 0 0 0 1 1 1 1 1
201	101738 10 0 0 0 0 1 1 1 1 1
202	101748 10 0 0 0 0 1 1 1 1 1
203	101758 10 0 0 0 0 1 1 1 1 1
204	101768 10 0 0 0 0 1 1 1 1 1
205	101778 60 0 75 0 30.354036619871 3 1 3 5 11
206	101838 60 0 45 0 30.354036565043 3 1 3 5 11
207	101898 58 0 29 0 30.35403653741 3 1 3 5 11
208	101956 60 0 46 0 30.354036565043 3 1 3 5 11
209	102016 60 0 76 0 30.354036619871 3 1 3 5 11
210	102076 10 0 0 0 0 1 1 1 1 1
211	102086 10 0 0 0 0 1 1 1 1 1
212	102096 10 0 0 0 0 1 1 1 1 1
213	102106 10 0 0 0 0 1 1 1 1 1
214	102116 10 0 0 0 0 1 1 1 1 1
215	102126 60 0 60 0 30.354036604123 3 1 3 5 11
216	102186 57 0 28 0 30.35403653741 3 1 3 5 11
217	102243 59 0 26 0 30.354036470697 3 0 1 2 2
218	102302 58 0 30 0 30.35403653741 3 1 3 5 11
219	102360 60 0 61 0 30.354036604123 3 1 3 5 11
220	102420 10 0 0 0 0 1 1 1 1 1
221	102430 10 0 0 0 0 1 1 1 1 1
222	102440 10 0 0 0 0 1 1 1 1 1
223	102450 10 0 0 0 0 1 1 1 1 1
224	102460 10 0 0 0 0 1 1 1 1 1
225	102470 60 0 71 0 30.354036619871 3 1 3 5 11
226	102530 60 0 43 0 30.354036565043 3 1 3 5 11
227	102590 57 0 27 0 30.35403653741 3 1 3 5 11
228	102647 60 0 44 0 30.354036565043 3 1 3 5 11
229	102707 60 0 73 0 30.354036619871 3 1 3 5 11
230	102767 10 0 0 0 0 1 1 1 1 1
231	102777 10 0 0 0 0 1 1 1 1 1
232	102787 10 0 0 0 0 1 1 1 1 1
233	102797 10 0 0 0 0 1 1 1 1 1
234	102807 10 0 0 0 0 1 1 1 1 1
235	102817 10 0 0 0 0 1 1 1 1 1
236	102827 60 0 72 0 30.354036619871 3 1 3 5 11
237	102887 60 0 59 0 30.354036604123 3 1 3 5 11
238	102947 60 0 74 0 30.354036619871 3 1 3 5 11
239	103007 10 0 0 0 0 1 1 1 1 1
240	103017 10 0 0 0 0 1 1 1 1 1
241	103027 10 0 0 0 0 1 1 1 1 1
242	103037 10 0 0 0 0 1 1 1 1 1
243	103047 10 0 0 0 0 1 1 1 1 1
244	103057 10 0 0 0 0 1 1 1 1 1
245	103067 10 0 0 0 0 1 1 1 1 1
246	103077 10 0 0 0 0 1 1 1 1 1
247	103087 10 0 0 0 0 1 1 1 1 1
248	103097 10 0 0 0 0 1 1 1 1 1
249	103107 10 0 0 0 0 1 1 1 1 1
250	103117 10 0 0 0 0 1 1 1 1 1
251	103127 10 0 0 0 0 1 1 1 1 1
252	103137 10 0 0 0 0 1 1 1 1 1
253	103147 10 0 0 0 0 1 1 1 1 1
254	103157 10 0 0 0 0 1 1 1 1 1
255	103167 10 0 0 0 0 1 1 1 1 1
256	103177 10 0 0 0 0 1 1 1 1 1
257	103187 10 0 0 0 0 1 1 1 1 1
258	103197 10 0 0 0 0 1 1 1 1 1
259	103207 10 0 0 0 0 1 1 1 1 1
260	103217 10 0 0 0 0 1 1 1 1 1
261	103227 10 0 0 0 0 1 1 1 1 1
262	103237 10 0 0 0 0 1 1 1 1 1
263	103247 10 0 0 0 0 1 1 1 1 1
264	103257 10 0 0 0 0 1 1 1 1 1
265	103267 10 0 0 0 0 1 1 1 1 1
266	103277 10 0 0 0 0 1 1 1 1 1
267	103287 10 0 0 0 0 1 1 1 1 1
268	103297 10 0 0 0 0 1 1 1 1 1
269	103307 10 0 0 0 0 1 1 1 1 1
270	103317 10 0 0 0 0 1 1 1 1 1
271	103327 10 0 0 0 0 1 1 1 1 1
272	103337 10 0 0 0 0 1 1 1 1 1
273	103347 10 0 0 0 0 1 1 1 1 1
274	103357 10 0 0 0 0 1 1 1 1 1
275	103367 10 0 0 0 0 1 1 1 1 1
276	103377 10 0 0 0 0 1 1 1 1 1
277	103387 10 0 0 0 0 1 1 1 1 1
278	103397 10 0 0 0 0 1 1 1 1 1
279	103407 10 0 0 0 0 1 1 1 1 1
280	103417 10 0 0 0 0 1 1 1 1 1
281	103427 10 0 0 0 0 1 1 1 1 1
282	103437 10 0 0 0 0 1 1 1 1 1
283	103447 10 0 0 0 0 1 1 1 1 1
284	103457 10 0 0 0 0 1 1 1 1 1
285	103467 10 0 0 0 0 1 1 1 1 1
286	103477 10 0 0 0 0 1 1 1 1 1
287	103487 36 0 105 0 30.362321703046 2 1 3 4 10
288	103523 36 0 102 0 30.362321675413 2 1 3 4 10
289	103559 36 0 106 0 30.362321703046 2 1 3 4 10
290	103595 10 0 0 0 0 1 1 1 1 1
291	103605 10 0 0 0 0 1 1 1 1 1
292	103615 10 0 0 0 0 1 1 1 1 1
293	103625 10 0 0 0 0 1 1 1 1 1
294	103635 10 0 0 0 0 1 1 1 1 1
295	103645 10 0 0 0 0 1 1 1 1 1
296	103655 10 0 0 0 0 1 1 1 1 1
297	103665 36 0 103 0 30.362321675413 2 1 3 4 10
298	103701 34 0 100 0 30.3623216087 2 0 1 1 1
299	103735 36 0 104 0 30.362321675413 2 1 3 4 10
300	103771 10 0 0 0 0 1 7 7 7 49
301	103781 10 0 0 0 0 1 7 7 7 49
302	103791 10 0 0 0 0 1 7 7 7 49
303	103801 10 0 0 0 0 1 7 7 7 49
304	103811 10 0 0 0 0 1 7 7 7 49
305	103821 10 0 0 0 0 1 7 7 7 49
306	103831 10 0 0 0 0 1 7 7 7 49
307	103841 10 0 0 0 0 1 7 7 7 49
308	103851 10 0 0 0 0 1 7 7 7 49
309	103861 10 0 0 0 0 1 7 7 7 49
310	103871 10 0 0 0 0 1 7 7 7 49
311	103881 10 0 0 0 0 1 7 7 7 49
312	103891 10 0 0 0 0 1 7 7 7 49
313	103901 10 0 0 0 0 1 7 7 7 49
314	103911 10 0 0 0 0 1 7 7 7 49
315	103921 10 0 0 0 0 1 7 7 7 49
316	103931 10 0 0 0 0 1 7 7 7 49
317	103941 10 0 0 0 0 1 7 7 7 49
318	103951 10 0 0 0 0 1 7 7 7 49
319	103961 10 0 0 0 0 1 7 7 7 49
320	103971 10 0 0 0 0 1 7 7 7 49
321	103981 10 0 0 0 0 1 7 7 7 49
322	103991 10 0 0 0 0 1 7 7 7 49
323	104001 10 0 0 0 0 1 7 7 7 49
324	104011 10 0 0 0 0 1 7 7 7 49
325	104021 10 0 0 0 0 1 7 7 7 49
326	104031 10 0 0 0 0 1 7 7 7 49
327	104041 10 0 0 0 0 1 7 7 7 49
328	104051 10 0 0 0 0 1 7 7 7 49
329	104061 10 0 0 0 0 1 7 7 7 49
330	104071 10 0 0 0 0 1 7 7 7 49
331	104081 10 0 0 0 0 1 7 7 7 49
332	104091 10 0 0 0 0 1 7 7 7 49
333	104101 10 0 0 0 0 1 7 7 7 49
334	104111 10 0 0 0 0 1 7 7 7 49
335	104121 10 0 0 0 0 1 7 7 7 49
336	104131 10 0 0 0 0 1 7 7 7 49
337	104141 10 0 0 0 0 1 7 7 7 49
338	104151 10 0 0 0 0 1 7 7 7 49
339	104161 10 0 0 0 0 1 7 7 7 49
340	104171 10 0 0 0 0 1 7 7 7 49
341	104181 10 0 0 0 0 1 7 7 7 49
342	104191 10 0 0 0 0 1 7 7 7 49
343	104201 10 0 0 0 0 1 7 7 7 49
344	104211 10 0 0 0 0 1 7 7 7 49
345	104221 10 0 0 0 0 1 7 7 7 49
346	104231 10 0 0 0 0 1 7 7 7 49
347	104241 10 0 0 0 0 1 7 7 7 49
348	104251 10 0 0 0 0 1 7 7 7 49
349	104261 10 0 0 0 0 1 7 7 7 49
350	104271 10 0 0 0 0 1 7 7 7 49
351	104281 10 0 0 0 0 1 7 7 7 49
352	104291 10 0 0 0 0 1 7 7 7 49
353	104301 10 0 0 0 0 1 7 7 7 49
354	104311 10 0 0 0 0 1 7 7 7 49
355	104321 10 0 0 0 0 1 7 7 7 49
356	104331 10 0 0 0 0 1 7 7 7 49
357	104341 10 0 0 0 0 1 7 7 7 49
358	104351 10 0 0 0 0 1 7 7 7 49
359	104361 10 0 0 0 0 1 7 7 7 49
360	104371 10 0 0 0 0 1 7 7 7 49
361	104381 10 0 0 0 0 1 7 7 7 49
362	104391 10 0 0 0 0 1 7 7 7 49
363	104401 10 0 0 0 0 1 7 7 7 49
364	104411 10 0 0 0 0 1 7 7 7 49
365	104421 10 0 0 0 0 1 7 7 7 49
366	104431 10 0 0 0 0 1 7 7 7 49
367	104441 10 0 0 0 0 1 7 7 7 49
368	104451 10 0 0 0 0 1 7 7 7 49
369	104461 10 0 0 0 0 1 7 7 7 49
370	104471 10 0 0 0 0 1 7 7 7 49
371	104481 10 0 0 0 0 1 7 7 7 49
372	104491 10 0 0 0 0 1 7 7 7 49
373	104501 10 0 0 0 0 1 7 7 7 49
374	104511 10 0 0 0 0 1 7 7 7 49
375	104521 10 0 0 0 0 1 7 7 7 49
376	104531 10 0 0 0 0 1 7 7 7 49
377	104541 10 0 0 0 0 1 7 7 7 49
378	104551 10 0 0 0 0 1 7 7 7 49
379	104561 10 0 0 0 0 1 7 7 7 49
380	104571 10 0 0 0 0 1 7 7 7 49
381	104581 10 0 0 0 0 1 7 7 7 49
382	104591 10 0 0 0 0 1 7 7 7 49
383	104601 10 0 0 0 0 1 7 7 7 49
384	104611 10 0 0 0 0 1 7 7 7 49
385	104621 10 0 0 0 0 1 7 7 7 49
386	104631 10 0 0 0 0 1 7 7 7 49
387	104641 10 0 0 0 0 1 7 7 7 49
388	104651 10 0 0 0 0 1 7 7 7 49
389	104661 10 0 0 0 0 1 7 7 7 49
390	104671 10 0 0 0 0 1 7 7 7 49
391	104681 10 0 0 0 0 1 7 7 7 49
392	104691 10 0 0 0 0 1 7 7 7 49
393	104701 10 0 0 0 0 1 7 7 7 49
394	104711 10 0 0 0 0 1 7 7 7 49
395	104721 10 0 0 0 0 1 7 7 7 49
396	104731 10 0 0 0 0 1 7 7 7 49
397	104741 10 0 0 0 0 1 7 7 7 49
398	104751 10 0 0 0 0 1 7 7 7 49
399	104761 10 0 0 0 0 1 7 7 7 49
400	104771 25 3 3 30.353982470697 30.353982470697 1 46 46 46 2116
401	104796 25 3 3 30.353982470697 30.353982470697 1 74 74 74 5476
402	104821 48 3 5 30.353982470697 30.353982470697 2 0 1 1 1
403	104869 24 3 3 30.353982470697 30.353982470697 1 4 4 4 16
404	104893 48 3 4 30.353982470697 30.353982470697 2 0 1 1 1
405	104941 25 5 5 30.353982470697 30.353982470697 1 74 74 74 5476
406	104966 24 5 5 30.353982470697 30.353982470697 1 0 0 0 0
407	104990 49 5 25 30.353982470697 30.354036470697 2 0 1 1 1
408	105039 31 5 5 30.353982470697 30.353982470697 1 24000000 24000000 24000000 5.76e+14
409	105070 25 5 5 30.353982470697 30.353982470697 1 74 74 74 5476
410	105095 49 5 25 30.353982470697 30.354036470697 2 0 1 1 1
411	105144 98 6 26 30.353982470697 30.354036470697 4 0 2 4 6
412	105242 26 25 25 30.354036470697 30.354036470697 1 74 74 74 5476
413	105268 26 25 25 30.354036470697 30.354036470697 1 74 74 74 5476
414	105294 26 25 25 30.354036470697 30.354036470697 1 74 74 74 5476
415	105320 26 25 25 30.354036470697 30.354036470697 1 74 74 74 5476
416	105346 31 25 25 30.354036470697 30.354036470697 1 5.4e-05 5.4e-05 5.4e-05 2.916e-09
417	105377 25 31 31 30.35403653741 30.35403653741 1 74 74 74 5476
418	105402 25 31 31 30.35403653741 30.35403653741 1 74 74 74 5476
419	105427 25 31 31 30.35403653741 30.35403653741 1 74 74 74 5476
420	105452 25 31 31 30.35403653741 30.35403653741 1 74 74 74 5476
421	105477 25 31 31 30.35403653741 30.35403653741 1 74 74 74 5476
422	105502 25 31 31 30.35403653741 30.35403653741 1 46 46 46 2116
423	105527 25 32 32 30.35403653741 30.35403653741 1 74 74 74 5476
424	105552 25 32 32 30.35403653741 30.35403653741 1 74 74 74 5476
425	105577 25 32 32 30.35403653741 30.35403653741 1 74 74 74 5476
426	105602 25 32 32 30.35403653741 30.35403653741 1 74 74 74 5476
427	105627 25 32 32 30.35403653741 30.35403653741 1 74 74 74 5476
428	105652 25 32 32 30.35403653741 30.35403653741 1 46 46 46 2116
429	105677 25 33 33 30.35403653741 30.35403653741 1 74 74 74 5476
430	105702 25 33 33 30.35403653741 30.35403653741 1 74 74 74 5476
431	105727 25 33 33 30.35403653741 30.35403653741 1 74 74 74 5476
432	105752 25 33 33 30.35403653741 30.35403653741 1 74 74 74 5476
433	105777 25 33 33 30.35403653741 30.35403653741 1 74 74 74 5476
434	105802 25 33 33 30.35403653741 30.35403653741 1 46 46 46 2116
435	105827 25 34 34 30.35403653741 30.35403653741 1 74 74 74 5476
436	105852 25 34 34 30.35403653741 30.35403653741 1 74 74 74 5476
437	105877 25 34 34 30.35403653741 30.35403653741 1 74 74 74 5476
438	105902 25 34 34 30.35403653741 30.35403653741 1 74 74 74 5476
439	105927 25 34 34 30.35403653741 30.35403653741 1 74 74 74 5476
440	105952 25 34 34 30.35403653741 30.35403653741 1 46 46 46 2116
441	105977 26 47 47 30.354036565043 30.354036565043 1 74 74 74 5476
442	106003 26 47 47 30.354036565043 30.354036565043 1 74 74 74 5476
443	106029 26 47 47 30.354036565043 30.354036565043 1 74 74 74 5476
444	106055 26 47 47 30.354036565043 30.354036565043 1 74 74 74 5476
445	106081 26 47 47 30.354036565043 30.354036565043 1 74 74 74 5476
446	106107 26 47 47 30.354036565043 30.354036565043 1 46 46 46 2116
447	106133 26 48 48 30.354036565043 30.354036565043 1 74 74 74 5476
448	106159 26 48 48 30.354036565043 30.354036565043 1 74 74 74 5476
449	106185 26 48 48 30.354036565043 30.354036565043 1 74 74 74 5476
450	106211 26 48 48 30.354036565043 30.354036565043 1 74 74 74 5476
451	106237 26 48 48 30.354036565043 30.354036565043 1 74 74 74 5476
452	106263 26 48 48 30.354036565043 30.354036565043 1 46 46 46 2116
453	106289 26 49 49 30.354036565043 30.354036565043 1 74 74 74 5476
454	106315 26 49 49 30.354036565043 30.354036565043 1 74 74 74 5476
455	106341 26 49 49 30.354036565043 30.354036565043 1 74 74 74 5476
456	106367 26 49 49 30.354036565043 30.354036565043 1 74 74 74 5476
457	106393 26 49 49 30.354036565043 30.354036565043 1 74 74 74 5476
458	106419 26 49 49 30.354036565043 30.354036565043 1 46 46 46 2116
459	106445 26 50 50 30.354036565043 30.354036565043 1 74 74 74 5476
460	106471 26 50 50 30.354036565043 30.354036565043 1 74 74 74 5476
461	106497 26 50 50 30.354036565043 30.354036565043 1 74 74 74 5476
462	106523 26 50 50 30.354036565043 30.354036565043 1 74 74 74 5476
463	106549 26 50 50 30.354036565043 30.354036565043 1 74 74 74 5476
464	106575 26 50 50 30.354036565043 30.354036565043 1 46 46 46 2116
465	106601 26 62 62 30.354036604123 30.354036604123 1 74 74 74 5476
466	106627 26 62 62 30.354036604123 30.354036604123 1 74 74 74 5476
467	106653 26 62 62 30.354036604123 30.354036604123 1 74 74 74 5476
468	106679 26 62 62 30.354036604123 30.354036604123 1 74 74 74 5476
469	106705 26 62 62 30.354036604123 30.354036604123 1 74 74 74 5476
470	106731 26 62 62 30.354036604123 30.354036604123 1 46 46 46 2116
471	106757 26 63 63 30.354036604123 30.354036604123 1 74 74 74 5476
472	106783 26 63 63 30.354036604123 30.354036604123 1 74 74 74 5476
473	106809 26 63 63 30.354036604123 30.354036604123 1 74 74 74 5476
474	106835 26 63 63 30.354036604123 30.354036604123 1 74 74 74 5476
475	106861 26 63 63 30.354036604123 30.354036604123 1 74 74 74 5476
476	106887 26 63 63 30.354036604123 30.354036604123 1 46 46 46 2116
477	106913 26 64 64 30.354036604123 30.354036604123 1 74 74 74 5476
478	106939 26 64 64 30.354036604123 30.354036604123 1 74 74 74 5476
479	106965 26 64 64 30.354036604123 30.354036604123 1 74 74 74 5476
480	106991 26 64 64 30.354036604123 30.354036604123 1 74 74 74 5476
481	107017 26 64 64 30.354036604123 30.354036604123 1 74 74 74 5476
482	107043 26 64 64 30.354036604123 30.354036604123 1 46 46 46 2116
483	107069 26 77 77 30.354036619871 30.354036619871 1 74 74 74 5476
484	107095 26 77 77 30.354036619871 30.354036619871 1 74 74 74 5476
485	107121 26 77 77 30.354036619871 30.354036619871 1 74 74 74 5476
486	107147 26 77 77 30.354036619871 30.354036619871 1 74 74 74 5476
487	107173 26 77 77 30.354036619871 30.354036619871 1 74 74 74 5476
488	107199 26 77 77 30.354036619871 30.354036619871 1 46 46 46 2116
489	107225 26 78 78 30.354036619871 30.354036619871 1 74 74 74 5476
490	107251 26 78 78 30.354036619871 30.354036619871 1 74 74 74 5476
491	107277 26 78 78 30.354036619871 30.354036619871 1 74 74 74 5476
492	107303 26 78 78 30.354036619871 30.354036619871 1 74 74 74 5476
493	107329 26 78 78 30.354036619871 30.354036619871 1 74 74 74 5476
494	107355 26 78 78 30.354036619871 30.354036619871 1 46 46 46 2116
495	107381 26 79 79 30.354036619871 30.354036619871 1 74 74 74 5476
496	107407 26 79 79 30.354036619871 30.354036619871 1 74 74 74 5476
497	107433 26 79 79 30.354036619871 30.354036619871 1 74 74 74 5476
498	107459 26 79 79 30.354036619871 30.354036619871 1 74 74 74 5476
499	107485 26 79 79 30.354036619871 30.354036619871 1 74 74 74 5476
500	107511 26 79 79 30.354036619871 30.354036619871 1 46 46 46 2116
501	107537 26 80 80 30.354036619871 30.354036619871 1 74 74 74 5476
502	107563 26 80 80 30.354036619871 30.354036619871 1 74 74 74 5476
503	107589 26 80 80 30.354036619871 30.354036619871 1 74 74 74 5476
504	107615 26 80 80 30.354036619871 30.354036619871 1 74 74 74 5476
505	107641 26 80 80 30.354036619871 30.354036619871 1 74 74 74 5476
506	107667 26 80 80 30.354036619871 30.354036619871 1 46 46 46 2116
507	107693 26 81 81 30.354036619871 30.354036619871 1 74 74 74 5476
508	107719 26 81 81 30.354036619871 30.354036619871 1 74 74 74 5476
509	107745 26 81 81 30.354036619871 30.354036619871 1 74 74 74 5476
510	107771 26 81 81 30.354036619871 30.354036619871 1 74 74 74 5476
511	107797 26 81 81 30.354036619871 30.354036619871 1 74 74 74 5476
512	107823 26 81 81 30.354036619871 30.354036619871 1 46 46 46 2116
513	107849 26 82 82 30.354036619871 30.354036619871 1 74 74 74 5476
514	107875 26 82 82 30.354036619871 30.354036619871 1 74 74 74 5476
515	107901 26 82 82 30.354036619871 30.354036619871 1 74 74 74 5476
516	107927 26 82 82 30.354036619871 30.354036619871 1 74 74 74 5476
517	107953 26 82 82 30.354036619871 30.354036619871 1 74 74 74 5476
518	107979 26 82 82 30.354036619871 30.354036619871 1 46 46 46 2116
519	108005 24 97 97 30.3623216087 30.3623216087 1 46 46 46 2116
520	108029 24 97 97 30.3623216087 30.3623216087 1 74 74 74 5476
521	108053 46 97 99 30.3623216087 30.3623216087 2 0 1 1 1
522	108099 23 97 97 30.3623216087 30.3623216087 1 2 2 2 4
523	108122 46 97 98 30.3623216087 30.3623216087 2 0 1 1 1
524	108168 24 99 99 30.3623216087 30.3623216087 1 74 74 74 5476
525	108192 23 99 99 30.3623216087 30.3623216087 1 0 0 0 0
526	108215 23 99 99 30.3623216087 30.3623216087 1 1 1 1 1
527	108238 30 99 99 30.3623216087 30.3623216087 1 24000000 24000000 24000000 5.76e+14
528	108268 24 99 99 30.3623216087 30.3623216087 1 74 74 74 5476
529	108292 23 99 99 30.3623216087 30.3623216087 1 1 1 1 1
530	108315 48 100 101 30.3623216087 30.3623216087 2 1 2 3 5

