version 2
run Hello-0-20200617-21:44:39-5419
attr configname Hello
attr datetime 20200617-21:44:39
attr experiment Hello
attr inifile omnetpp.ini
attr iterationvars $0=10
attr iterationvarsf 10-
attr measurement $0=10
attr network HelloTest
attr processid 5419
attr repetition 0
attr replication #0
attr resultdir results
attr runnumber 0
attr seedset 10
param **.mote[*].mobility.numHosts 100
param **.moteNumber 100
param **.mobility.typename "\"StaticGridMobility\""
param **.mobility.initFromDisplayString false
param **.enl.np.typename "\"ProbabilisticBroadcast\""
param **.broadcastTime 30s
param **.bcastDelay 15s
param **.maxAttemps 3
param **.wlan[*].typename "\"Ieee80211Interface\""
param **.wlan[*].radio.typename "\"Ieee80211ScalarRadio\""
param **.wlan[*].channelNumber 1
param **.wlan[*].radio.transmitter.power 20mW
param **.wlan[*].radio.transmitter.bitrate 18Mbps
param **.wlan[*].radio.receiver.sensitivity -85dBm
param **.wlan[*].radio.receiver.snirThreshold 4dB
param **.wlan[*].mac.dcf.channelAccess.cwMin 7
param **.wlan[*].mgmt.typename "\"Ieee80211MgmtAdhoc\""
param **.wlan[*].agent.typename "\"\""
param **.radioMedium.typename "\"Ieee80211ScalarRadioMedium\""
param **.radioMedium.neighborCache.typename "\"QuadTreeNeighborCache\""
param **.radioMedium.neighborCache.maxNumOfPointsPerQuadrant 16
param **.radioMedium.neighborCache.radioMediumModule "\"radioMedium\""
param **.radioMedium.rangeFilter "\"communicationRange\""
param **.radioMedium.mediumLimitCache.minReceptionPower -85dBm
param **.radioMedium.neighborCache.refillPeriod 3600s
param **.radioMedium.pathLoss.alpha 3.5
param **.radioMedium.mediumLimitCache.centerFrequency 2.412GHz
param **.constraintAreaMinX 0m
param **.constraintAreaMinY 0m
param **.constraintAreaMinZ 0m
param **.constraintAreaMaxX 200m
param **.constraintAreaMaxY 200m
param **.constraintAreaMaxZ 0m

vector 0 HelloTest.mote[0].wlan[0].radio radioMode:vector ETV
attr interpolationmode sample-hold
attr source radioModeChanged
attr title "Radio mode, vector"
vector 1 HelloTest.mote[0].wlan[0].radio radioChannel:vector ETV
attr interpolationmode sample-hold
attr source radioChannelChanged
attr title "Radio channel, vector"
vector 2 HelloTest.mote[1].wlan[0].radio radioMode:vector ETV
attr interpolationmode sample-hold
attr source radioModeChanged
attr title "Radio mode, vector"
vector 3 HelloTest.mote[1].wlan[0].radio radioChannel:vector ETV
attr interpolationmode sample-hold
attr source radioChannelChanged
attr title "Radio channel, vector"
vector 4 HelloTest.mote[2].wlan[0].radio radioMode:vector ETV
attr interpolationmode sample-hold
attr source radioModeChanged
attr title "Radio mode, vector"
vector 5 HelloTest.mote[2].wlan[0].radio radioChannel:vector ETV
attr interpolationmode sample-hold
attr source radioChannelChanged
attr title "Radio channel, vector"
vector 6 HelloTest.mote[3].wlan[0].radio radioMode:vector ETV
attr interpolationmode sample-hold
attr source radioModeChanged
attr title "Radio mode, vector"
vector 7 HelloTest.mote[3].wlan[0].radio radioChannel:vector ETV
attr interpolationmode sample-hold
attr source radioChannelChanged
attr title "Radio channel, vector"
vector 8 HelloTest.mote[4].wlan[0].radio radioMode:vector ETV
attr interpolationmode sample-hold
attr source radioModeChanged
attr title "Radio mode, vector"
vector 9 HelloTest.mote[4].wlan[0].radio radioChannel:vector ETV
attr interpolationmode sample-hold
attr source radioChannelChanged
attr title "Radio channel, vector"
vector 10 HelloTest.mote[5].wlan[0].radio radioMode:vector ETV
attr interpolationmode sample-hold
attr source radioModeChanged
attr title "Radio mode, vector"
vector 11 HelloTest.mote[5].wlan[0].radio radioChannel:vector ETV
attr interpolationmode sample-hold
attr source radioChannelChanged
attr title "Radio channel, vector"
vector 12 HelloTest.mote[6].wlan[0].radio radioMode:vector ETV
attr interpolationmode sample-hold
attr source radioModeChanged
attr title "Radio mode, vector"
vector 13 HelloTest.mote[6].wlan[0].radio radioChannel:vector ETV
attr interpolationmode sample-hold
attr source radioChannelChanged
attr title "Radio channel, vector"
vector 14 HelloTest.mote[7].wlan[0].radio radioMode:vector ETV
attr interpolationmode sample-hold
attr source radioModeChanged
attr title "Radio mode, vector"
vector 15 HelloTest.mote[7].wlan[0].radio radioChannel:vector ETV
attr interpolationmode sample-hold
attr source radioChannelChanged
attr title "Radio channel, vector"
vector 16 HelloTest.mote[8].wlan[0].radio radioMode:vector ETV
attr interpolationmode sample-hold
attr source radioModeChanged
attr title "Radio mode, vector"
vector 17 HelloTest.mote[8].wlan[0].radio radioChannel:vector ETV
attr interpolationmode sample-hold
attr source radioChannelChanged
attr title "Radio channel, vector"
vector 18 HelloTest.mote[9].wlan[0].radio radioMode:vector ETV
attr interpolationmode sample-hold
attr source radioModeChanged
attr title "Radio mode, vector"
vector 19 HelloTest.mote[9].wlan[0].radio radioChannel:vector ETV
attr interpolationmode sample-hold
attr source radioChannelChanged
attr title "Radio channel, vector"
vector 20 HelloTest.mote[10].wlan[0].radio radioMode:vector ETV
attr interpolationmode sample-hold
attr source radioModeChanged
attr title "Radio mode, vector"
vector 21 HelloTest.mote[10].wlan[0].radio radioChannel:vector ETV
attr interpolationmode sample-hold
attr source radioChannelChanged
attr title "Radio channel, vector"
vector 22 HelloTest.mote[11].wlan[0].radio radioMode:vector ETV
attr interpolationmode sample-hold
attr source radioModeChanged
attr title "Radio mode, vector"
vector 23 HelloTest.mote[11].wlan[0].radio radioChannel:vector ETV
attr interpolationmode sample-hold
attr source radioChannelChanged
attr title "Radio channel, vector"
vector 24 HelloTest.mote[12].wlan[0].radio radioMode:vector ETV
attr interpolationmode sample-hold
attr source radioModeChanged
attr title "Radio mode, vector"
vector 25 HelloTest.mote[12].wlan[0].radio radioChannel:vector ETV
attr interpolationmode sample-hold
attr source radioChannelChanged
attr title "Radio channel, vector"
vector 26 HelloTest.mote[13].wlan[0].radio radioMode:vector ETV
attr interpolationmode sample-hold
attr source radioModeChanged
attr title "Radio mode, vector"
vector 27 HelloTest.mote[13].wlan[0].radio radioChannel:vector ETV
attr interpolationmode sample-hold
attr source radioChannelChanged
attr title "Radio channel, vector"
vector 28 HelloTest.mote[14].wlan[0].radio radioMode:vector ETV
attr interpolationmode sample-hold
attr source radioModeChanged
attr title "Radio mode, vector"
vector 29 HelloTest.mote[14].wlan[0].radio radioChannel:vector ETV
attr interpolationmode sample-hold
attr source radioChannelChanged
attr title "Radio channel, vector"
vector 30 HelloTest.mote[15].wlan[0].radio radioMode:vector ETV
attr interpolationmode sample-hold
attr source radioModeChanged
attr title "Radio mode, vector"
vector 31 HelloTest.mote[15].wlan[0].radio radioChannel:vector ETV
attr interpolationmode sample-hold
attr source radioChannelChanged
attr title "Radio channel, vector"
vector 32 HelloTest.mote[16].wlan[0].radio radioMode:vector ETV
attr interpolationmode sample-hold
attr source radioModeChanged
attr title "Radio mode, vector"
vector 33 HelloTest.mote[16].wlan[0].radio radioChannel:vector ETV
attr interpolationmode sample-hold
attr source radioChannelChanged
attr title "Radio channel, vector"
vector 34 HelloTest.mote[17].wlan[0].radio radioMode:vector ETV
attr interpolationmode sample-hold
attr source radioModeChanged
attr title "Radio mode, vector"
vector 35 HelloTest.mote[17].wlan[0].radio radioChannel:vector ETV
attr interpolationmode sample-hold
attr source radioChannelChanged
attr title "Radio channel, vector"
vector 36 HelloTest.mote[18].wlan[0].radio radioMode:vector ETV
attr interpolationmode sample-hold
attr source radioModeChanged
attr title "Radio mode, vector"
vector 37 HelloTest.mote[18].wlan[0].radio radioChannel:vector ETV
attr interpolationmode sample-hold
attr source radioChannelChanged
attr title "Radio channel, vector"
vector 38 HelloTest.mote[19].wlan[0].radio radioMode:vector ETV
attr interpolationmode sample-hold
attr source radioModeChanged
attr title "Radio mode, vector"
vector 39 HelloTest.mote[19].wlan[0].radio radioChannel:vector ETV
attr interpolationmode sample-hold
attr source radioChannelChanged
attr title "Radio channel, vector"
vector 40 HelloTest.mote[20].wlan[0].radio radioMode:vector ETV
attr interpolationmode sample-hold
attr source radioModeChanged
attr title "Radio mode, vector"
vector 41 HelloTest.mote[20].wlan[0].radio radioChannel:vector ETV
attr interpolationmode sample-hold
attr source radioChannelChanged
attr title "Radio channel, vector"
vector 42 HelloTest.mote[21].wlan[0].radio radioMode:vector ETV
attr interpolationmode sample-hold
attr source radioModeChanged
attr title "Radio mode, vector"
vector 43 HelloTest.mote[21].wlan[0].radio radioChannel:vector ETV
attr interpolationmode sample-hold
attr source radioChannelChanged
attr title "Radio channel, vector"
vector 44 HelloTest.mote[22].wlan[0].radio radioMode:vector ETV
attr interpolationmode sample-hold
attr source radioModeChanged
attr title "Radio mode, vector"
vector 45 HelloTest.mote[22].wlan[0].radio radioChannel:vector ETV
attr interpolationmode sample-hold
attr source radioChannelChanged
attr title "Radio channel, vector"
vector 46 HelloTest.mote[23].wlan[0].radio radioMode:vector ETV
attr interpolationmode sample-hold
attr source radioModeChanged
attr title "Radio mode, vector"
vector 47 HelloTest.mote[23].wlan[0].radio radioChannel:vector ETV
attr interpolationmode sample-hold
attr source radioChannelChanged
attr title "Radio channel, vector"
vector 48 HelloTest.mote[24].wlan[0].radio radioMode:vector ETV
attr interpolationmode sample-hold
attr source radioModeChanged
attr title "Radio mode, vector"
vector 49 HelloTest.mote[24].wlan[0].radio radioChannel:vector ETV
attr interpolationmode sample-hold
attr source radioChannelChanged
attr title "Radio channel, vector"
vector 50 HelloTest.mote[25].wlan[0].radio radioMode:vector ETV
attr interpolationmode sample-hold
attr source radioModeChanged
attr title "Radio mode, vector"
vector 51 HelloTest.mote[25].wlan[0].radio radioChannel:vector ETV
attr interpolationmode sample-hold
attr source radioChannelChanged
attr title "Radio channel, vector"
vector 52 HelloTest.mote[26].wlan[0].radio radioMode:vector ETV
attr interpolationmode sample-hold
attr source radioModeChanged
attr title "Radio mode, vector"
vector 53 HelloTest.mote[26].wlan[0].radio radioChannel:vector ETV
attr interpolationmode sample-hold
attr source radioChannelChanged
attr title "Radio channel, vector"
vector 54 HelloTest.mote[27].wlan[0].radio radioMode:vector ETV
attr interpolationmode sample-hold
attr source radioModeChanged
attr title "Radio mode, vector"
vector 55 HelloTest.mote[27].wlan[0].radio radioChannel:vector ETV
attr interpolationmode sample-hold
attr source radioChannelChanged
attr title "Radio channel, vector"
vector 56 HelloTest.mote[28].wlan[0].radio radioMode:vector ETV
attr interpolationmode sample-hold
attr source radioModeChanged
attr title "Radio mode, vector"
vector 57 HelloTest.mote[28].wlan[0].radio radioChannel:vector ETV
attr interpolationmode sample-hold
attr source radioChannelChanged
attr title "Radio channel, vector"
vector 58 HelloTest.mote[29].wlan[0].radio radioMode:vector ETV
attr interpolationmode sample-hold
attr source radioModeChanged
attr title "Radio mode, vector"
vector 59 HelloTest.mote[29].wlan[0].radio radioChannel:vector ETV
attr interpolationmode sample-hold
attr source radioChannelChanged
attr title "Radio channel, vector"
vector 60 HelloTest.mote[30].wlan[0].radio radioMode:vector ETV
attr interpolationmode sample-hold
attr source radioModeChanged
attr title "Radio mode, vector"
vector 61 HelloTest.mote[30].wlan[0].radio radioChannel:vector ETV
attr interpolationmode sample-hold
attr source radioChannelChanged
attr title "Radio channel, vector"
vector 62 HelloTest.mote[31].wlan[0].radio radioMode:vector ETV
attr interpolationmode sample-hold
attr source radioModeChanged
attr title "Radio mode, vector"
vector 63 HelloTest.mote[31].wlan[0].radio radioChannel:vector ETV
attr interpolationmode sample-hold
attr source radioChannelChanged
attr title "Radio channel, vector"
vector 64 HelloTest.mote[32].wlan[0].radio radioMode:vector ETV
attr interpolationmode sample-hold
attr source radioModeChanged
attr title "Radio mode, vector"
vector 65 HelloTest.mote[32].wlan[0].radio radioChannel:vector ETV
attr interpolationmode sample-hold
attr source radioChannelChanged
attr title "Radio channel, vector"
vector 66 HelloTest.mote[33].wlan[0].radio radioMode:vector ETV
attr interpolationmode sample-hold
attr source radioModeChanged
attr title "Radio mode, vector"
vector 67 HelloTest.mote[33].wlan[0].radio radioChannel:vector ETV
attr interpolationmode sample-hold
attr source radioChannelChanged
attr title "Radio channel, vector"
vector 68 HelloTest.mote[34].wlan[0].radio radioMode:vector ETV
attr interpolationmode sample-hold
attr source radioModeChanged
attr title "Radio mode, vector"
vector 69 HelloTest.mote[34].wlan[0].radio radioChannel:vector ETV
attr interpolationmode sample-hold
attr source radioChannelChanged
attr title "Radio channel, vector"
vector 70 HelloTest.mote[35].wlan[0].radio radioMode:vector ETV
attr interpolationmode sample-hold
attr source radioModeChanged
attr title "Radio mode, vector"
vector 71 HelloTest.mote[35].wlan[0].radio radioChannel:vector ETV
attr interpolationmode sample-hold
attr source radioChannelChanged
attr title "Radio channel, vector"
vector 72 HelloTest.mote[36].wlan[0].radio radioMode:vector ETV
attr interpolationmode sample-hold
attr source radioModeChanged
attr title "Radio mode, vector"
vector 73 HelloTest.mote[36].wlan[0].radio radioChannel:vector ETV
attr interpolationmode sample-hold
attr source radioChannelChanged
attr title "Radio channel, vector"
vector 74 HelloTest.mote[37].wlan[0].radio radioMode:vector ETV
attr interpolationmode sample-hold
attr source radioModeChanged
attr title "Radio mode, vector"
vector 75 HelloTest.mote[37].wlan[0].radio radioChannel:vector ETV
attr interpolationmode sample-hold
attr source radioChannelChanged
attr title "Radio channel, vector"
vector 76 HelloTest.mote[38].wlan[0].radio radioMode:vector ETV
attr interpolationmode sample-hold
attr source radioModeChanged
attr title "Radio mode, vector"
vector 77 HelloTest.mote[38].wlan[0].radio radioChannel:vector ETV
attr interpolationmode sample-hold
attr source radioChannelChanged
attr title "Radio channel, vector"
vector 78 HelloTest.mote[39].wlan[0].radio radioMode:vector ETV
attr interpolationmode sample-hold
attr source radioModeChanged
attr title "Radio mode, vector"
vector 79 HelloTest.mote[39].wlan[0].radio radioChannel:vector ETV
attr interpolationmode sample-hold
attr source radioChannelChanged
attr title "Radio channel, vector"
vector 80 HelloTest.mote[40].wlan[0].radio radioMode:vector ETV
attr interpolationmode sample-hold
attr source radioModeChanged
attr title "Radio mode, vector"
vector 81 HelloTest.mote[40].wlan[0].radio radioChannel:vector ETV
attr interpolationmode sample-hold
attr source radioChannelChanged
attr title "Radio channel, vector"
vector 82 HelloTest.mote[41].wlan[0].radio radioMode:vector ETV
attr interpolationmode sample-hold
attr source radioModeChanged
attr title "Radio mode, vector"
vector 83 HelloTest.mote[41].wlan[0].radio radioChannel:vector ETV
attr interpolationmode sample-hold
attr source radioChannelChanged
attr title "Radio channel, vector"
vector 84 HelloTest.mote[42].wlan[0].radio radioMode:vector ETV
attr interpolationmode sample-hold
attr source radioModeChanged
attr title "Radio mode, vector"
vector 85 HelloTest.mote[42].wlan[0].radio radioChannel:vector ETV
attr interpolationmode sample-hold
attr source radioChannelChanged
attr title "Radio channel, vector"
vector 86 HelloTest.mote[43].wlan[0].radio radioMode:vector ETV
attr interpolationmode sample-hold
attr source radioModeChanged
attr title "Radio mode, vector"
vector 87 HelloTest.mote[43].wlan[0].radio radioChannel:vector ETV
attr interpolationmode sample-hold
attr source radioChannelChanged
attr title "Radio channel, vector"
vector 88 HelloTest.mote[44].wlan[0].radio radioMode:vector ETV
attr interpolationmode sample-hold
attr source radioModeChanged
attr title "Radio mode, vector"
vector 89 HelloTest.mote[44].wlan[0].radio radioChannel:vector ETV
attr interpolationmode sample-hold
attr source radioChannelChanged
attr title "Radio channel, vector"
vector 90 HelloTest.mote[45].wlan[0].radio radioMode:vector ETV
attr interpolationmode sample-hold
attr source radioModeChanged
attr title "Radio mode, vector"
vector 91 HelloTest.mote[45].wlan[0].radio radioChannel:vector ETV
attr interpolationmode sample-hold
attr source radioChannelChanged
attr title "Radio channel, vector"
vector 92 HelloTest.mote[46].wlan[0].radio radioMode:vector ETV
attr interpolationmode sample-hold
attr source radioModeChanged
attr title "Radio mode, vector"
vector 93 HelloTest.mote[46].wlan[0].radio radioChannel:vector ETV
attr interpolationmode sample-hold
attr source radioChannelChanged
attr title "Radio channel, vector"
vector 94 HelloTest.mote[47].wlan[0].radio radioMode:vector ETV
attr interpolationmode sample-hold
attr source radioModeChanged
attr title "Radio mode, vector"
vector 95 HelloTest.mote[47].wlan[0].radio radioChannel:vector ETV
attr interpolationmode sample-hold
attr source radioChannelChanged
attr title "Radio channel, vector"
vector 96 HelloTest.mote[48].wlan[0].radio radioMode:vector ETV
attr interpolationmode sample-hold
attr source radioModeChanged
attr title "Radio mode, vector"
vector 97 HelloTest.mote[48].wlan[0].radio radioChannel:vector ETV
attr interpolationmode sample-hold
attr source radioChannelChanged
attr title "Radio channel, vector"
vector 98 HelloTest.mote[49].wlan[0].radio radioMode:vector ETV
attr interpolationmode sample-hold
attr source radioModeChanged
attr title "Radio mode, vector"
vector 99 HelloTest.mote[49].wlan[0].radio radioChannel:vector ETV
attr interpolationmode sample-hold
attr source radioChannelChanged
attr title "Radio channel, vector"
vector 100 HelloTest.mote[50].wlan[0].radio radioMode:vector ETV
attr interpolationmode sample-hold
attr source radioModeChanged
attr title "Radio mode, vector"
vector 101 HelloTest.mote[50].wlan[0].radio radioChannel:vector ETV
attr interpolationmode sample-hold
attr source radioChannelChanged
attr title "Radio channel, vector"
vector 102 HelloTest.mote[51].wlan[0].radio radioMode:vector ETV
attr interpolationmode sample-hold
attr source radioModeChanged
attr title "Radio mode, vector"
vector 103 HelloTest.mote[51].wlan[0].radio radioChannel:vector ETV
attr interpolationmode sample-hold
attr source radioChannelChanged
attr title "Radio channel, vector"
vector 104 HelloTest.mote[52].wlan[0].radio radioMode:vector ETV
attr interpolationmode sample-hold
attr source radioModeChanged
attr title "Radio mode, vector"
vector 105 HelloTest.mote[52].wlan[0].radio radioChannel:vector ETV
attr interpolationmode sample-hold
attr source radioChannelChanged
attr title "Radio channel, vector"
vector 106 HelloTest.mote[53].wlan[0].radio radioMode:vector ETV
attr interpolationmode sample-hold
attr source radioModeChanged
attr title "Radio mode, vector"
vector 107 HelloTest.mote[53].wlan[0].radio radioChannel:vector ETV
attr interpolationmode sample-hold
attr source radioChannelChanged
attr title "Radio channel, vector"
vector 108 HelloTest.mote[54].wlan[0].radio radioMode:vector ETV
attr interpolationmode sample-hold
attr source radioModeChanged
attr title "Radio mode, vector"
vector 109 HelloTest.mote[54].wlan[0].radio radioChannel:vector ETV
attr interpolationmode sample-hold
attr source radioChannelChanged
attr title "Radio channel, vector"
vector 110 HelloTest.mote[55].wlan[0].radio radioMode:vector ETV
attr interpolationmode sample-hold
attr source radioModeChanged
attr title "Radio mode, vector"
vector 111 HelloTest.mote[55].wlan[0].radio radioChannel:vector ETV
attr interpolationmode sample-hold
attr source radioChannelChanged
attr title "Radio channel, vector"
vector 112 HelloTest.mote[56].wlan[0].radio radioMode:vector ETV
attr interpolationmode sample-hold
attr source radioModeChanged
attr title "Radio mode, vector"
vector 113 HelloTest.mote[56].wlan[0].radio radioChannel:vector ETV
attr interpolationmode sample-hold
attr source radioChannelChanged
attr title "Radio channel, vector"
vector 114 HelloTest.mote[57].wlan[0].radio radioMode:vector ETV
attr interpolationmode sample-hold
attr source radioModeChanged
attr title "Radio mode, vector"
vector 115 HelloTest.mote[57].wlan[0].radio radioChannel:vector ETV
attr interpolationmode sample-hold
attr source radioChannelChanged
attr title "Radio channel, vector"
vector 116 HelloTest.mote[58].wlan[0].radio radioMode:vector ETV
attr interpolationmode sample-hold
attr source radioModeChanged
attr title "Radio mode, vector"
vector 117 HelloTest.mote[58].wlan[0].radio radioChannel:vector ETV
attr interpolationmode sample-hold
attr source radioChannelChanged
attr title "Radio channel, vector"
vector 118 HelloTest.mote[59].wlan[0].radio radioMode:vector ETV
attr interpolationmode sample-hold
attr source radioModeChanged
attr title "Radio mode, vector"
vector 119 HelloTest.mote[59].wlan[0].radio radioChannel:vector ETV
attr interpolationmode sample-hold
attr source radioChannelChanged
attr title "Radio channel, vector"
vector 120 HelloTest.mote[60].wlan[0].radio radioMode:vector ETV
attr interpolationmode sample-hold
attr source radioModeChanged
attr title "Radio mode, vector"
vector 121 HelloTest.mote[60].wlan[0].radio radioChannel:vector ETV
attr interpolationmode sample-hold
attr source radioChannelChanged
attr title "Radio channel, vector"
vector 122 HelloTest.mote[61].wlan[0].radio radioMode:vector ETV
attr interpolationmode sample-hold
attr source radioModeChanged
attr title "Radio mode, vector"
vector 123 HelloTest.mote[61].wlan[0].radio radioChannel:vector ETV
attr interpolationmode sample-hold
attr source radioChannelChanged
attr title "Radio channel, vector"
vector 124 HelloTest.mote[62].wlan[0].radio radioMode:vector ETV
attr interpolationmode sample-hold
attr source radioModeChanged
attr title "Radio mode, vector"
vector 125 HelloTest.mote[62].wlan[0].radio radioChannel:vector ETV
attr interpolationmode sample-hold
attr source radioChannelChanged
attr title "Radio channel, vector"
vector 126 HelloTest.mote[63].wlan[0].radio radioMode:vector ETV
attr interpolationmode sample-hold
attr source radioModeChanged
attr title "Radio mode, vector"
vector 127 HelloTest.mote[63].wlan[0].radio radioChannel:vector ETV
attr interpolationmode sample-hold
attr source radioChannelChanged
attr title "Radio channel, vector"
vector 128 HelloTest.mote[64].wlan[0].radio radioMode:vector ETV
attr interpolationmode sample-hold
attr source radioModeChanged
attr title "Radio mode, vector"
vector 129 HelloTest.mote[64].wlan[0].radio radioChannel:vector ETV
attr interpolationmode sample-hold
attr source radioChannelChanged
attr title "Radio channel, vector"
vector 130 HelloTest.mote[65].wlan[0].radio radioMode:vector ETV
attr interpolationmode sample-hold
attr source radioModeChanged
attr title "Radio mode, vector"
vector 131 HelloTest.mote[65].wlan[0].radio radioChannel:vector ETV
attr interpolationmode sample-hold
attr source radioChannelChanged
attr title "Radio channel, vector"
vector 132 HelloTest.mote[66].wlan[0].radio radioMode:vector ETV
attr interpolationmode sample-hold
attr source radioModeChanged
attr title "Radio mode, vector"
vector 133 HelloTest.mote[66].wlan[0].radio radioChannel:vector ETV
attr interpolationmode sample-hold
attr source radioChannelChanged
attr title "Radio channel, vector"
vector 134 HelloTest.mote[67].wlan[0].radio radioMode:vector ETV
attr interpolationmode sample-hold
attr source radioModeChanged
attr title "Radio mode, vector"
vector 135 HelloTest.mote[67].wlan[0].radio radioChannel:vector ETV
attr interpolationmode sample-hold
attr source radioChannelChanged
attr title "Radio channel, vector"
vector 136 HelloTest.mote[68].wlan[0].radio radioMode:vector ETV
attr interpolationmode sample-hold
attr source radioModeChanged
attr title "Radio mode, vector"
vector 137 HelloTest.mote[68].wlan[0].radio radioChannel:vector ETV
attr interpolationmode sample-hold
attr source radioChannelChanged
attr title "Radio channel, vector"
vector 138 HelloTest.mote[69].wlan[0].radio radioMode:vector ETV
attr interpolationmode sample-hold
attr source radioModeChanged
attr title "Radio mode, vector"
vector 139 HelloTest.mote[69].wlan[0].radio radioChannel:vector ETV
attr interpolationmode sample-hold
attr source radioChannelChanged
attr title "Radio channel, vector"
vector 140 HelloTest.mote[70].wlan[0].radio radioMode:vector ETV
attr interpolationmode sample-hold
attr source radioModeChanged
attr title "Radio mode, vector"
vector 141 HelloTest.mote[70].wlan[0].radio radioChannel:vector ETV
attr interpolationmode sample-hold
attr source radioChannelChanged
attr title "Radio channel, vector"
vector 142 HelloTest.mote[71].wlan[0].radio radioMode:vector ETV
attr interpolationmode sample-hold
attr source radioModeChanged
attr title "Radio mode, vector"
vector 143 HelloTest.mote[71].wlan[0].radio radioChannel:vector ETV
attr interpolationmode sample-hold
attr source radioChannelChanged
attr title "Radio channel, vector"
vector 144 HelloTest.mote[72].wlan[0].radio radioMode:vector ETV
attr interpolationmode sample-hold
attr source radioModeChanged
attr title "Radio mode, vector"
vector 145 HelloTest.mote[72].wlan[0].radio radioChannel:vector ETV
attr interpolationmode sample-hold
attr source radioChannelChanged
attr title "Radio channel, vector"
vector 146 HelloTest.mote[73].wlan[0].radio radioMode:vector ETV
attr interpolationmode sample-hold
attr source radioModeChanged
attr title "Radio mode, vector"
vector 147 HelloTest.mote[73].wlan[0].radio radioChannel:vector ETV
attr interpolationmode sample-hold
attr source radioChannelChanged
attr title "Radio channel, vector"
vector 148 HelloTest.mote[74].wlan[0].radio radioMode:vector ETV
attr interpolationmode sample-hold
attr source radioModeChanged
attr title "Radio mode, vector"
vector 149 HelloTest.mote[74].wlan[0].radio radioChannel:vector ETV
attr interpolationmode sample-hold
attr source radioChannelChanged
attr title "Radio channel, vector"
vector 150 HelloTest.mote[75].wlan[0].radio radioMode:vector ETV
attr interpolationmode sample-hold
attr source radioModeChanged
attr title "Radio mode, vector"
vector 151 HelloTest.mote[75].wlan[0].radio radioChannel:vector ETV
attr interpolationmode sample-hold
attr source radioChannelChanged
attr title "Radio channel, vector"
vector 152 HelloTest.mote[76].wlan[0].radio radioMode:vector ETV
attr interpolationmode sample-hold
attr source radioModeChanged
attr title "Radio mode, vector"
vector 153 HelloTest.mote[76].wlan[0].radio radioChannel:vector ETV
attr interpolationmode sample-hold
attr source radioChannelChanged
attr title "Radio channel, vector"
vector 154 HelloTest.mote[77].wlan[0].radio radioMode:vector ETV
attr interpolationmode sample-hold
attr source radioModeChanged
attr title "Radio mode, vector"
vector 155 HelloTest.mote[77].wlan[0].radio radioChannel:vector ETV
attr interpolationmode sample-hold
attr source radioChannelChanged
attr title "Radio channel, vector"
vector 156 HelloTest.mote[78].wlan[0].radio radioMode:vector ETV
attr interpolationmode sample-hold
attr source radioModeChanged
attr title "Radio mode, vector"
vector 157 HelloTest.mote[78].wlan[0].radio radioChannel:vector ETV
attr interpolationmode sample-hold
attr source radioChannelChanged
attr title "Radio channel, vector"
vector 158 HelloTest.mote[79].wlan[0].radio radioMode:vector ETV
attr interpolationmode sample-hold
attr source radioModeChanged
attr title "Radio mode, vector"
vector 159 HelloTest.mote[79].wlan[0].radio radioChannel:vector ETV
attr interpolationmode sample-hold
attr source radioChannelChanged
attr title "Radio channel, vector"
vector 160 HelloTest.mote[80].wlan[0].radio radioMode:vector ETV
attr interpolationmode sample-hold
attr source radioModeChanged
attr title "Radio mode, vector"
vector 161 HelloTest.mote[80].wlan[0].radio radioChannel:vector ETV
attr interpolationmode sample-hold
attr source radioChannelChanged
attr title "Radio channel, vector"
vector 162 HelloTest.mote[81].wlan[0].radio radioMode:vector ETV
attr interpolationmode sample-hold
attr source radioModeChanged
attr title "Radio mode, vector"
vector 163 HelloTest.mote[81].wlan[0].radio radioChannel:vector ETV
attr interpolationmode sample-hold
attr source radioChannelChanged
attr title "Radio channel, vector"
vector 164 HelloTest.mote[82].wlan[0].radio radioMode:vector ETV
attr interpolationmode sample-hold
attr source radioModeChanged
attr title "Radio mode, vector"
vector 165 HelloTest.mote[82].wlan[0].radio radioChannel:vector ETV
attr interpolationmode sample-hold
attr source radioChannelChanged
attr title "Radio channel, vector"
vector 166 HelloTest.mote[83].wlan[0].radio radioMode:vector ETV
attr interpolationmode sample-hold
attr source radioModeChanged
attr title "Radio mode, vector"
vector 167 HelloTest.mote[83].wlan[0].radio radioChannel:vector ETV
attr interpolationmode sample-hold
attr source radioChannelChanged
attr title "Radio channel, vector"
vector 168 HelloTest.mote[84].wlan[0].radio radioMode:vector ETV
attr interpolationmode sample-hold
attr source radioModeChanged
attr title "Radio mode, vector"
vector 169 HelloTest.mote[84].wlan[0].radio radioChannel:vector ETV
attr interpolationmode sample-hold
attr source radioChannelChanged
attr title "Radio channel, vector"
vector 170 HelloTest.mote[85].wlan[0].radio radioMode:vector ETV
attr interpolationmode sample-hold
attr source radioModeChanged
attr title "Radio mode, vector"
vector 171 HelloTest.mote[85].wlan[0].radio radioChannel:vector ETV
attr interpolationmode sample-hold
attr source radioChannelChanged
attr title "Radio channel, vector"
vector 172 HelloTest.mote[86].wlan[0].radio radioMode:vector ETV
attr interpolationmode sample-hold
attr source radioModeChanged
attr title "Radio mode, vector"
vector 173 HelloTest.mote[86].wlan[0].radio radioChannel:vector ETV
attr interpolationmode sample-hold
attr source radioChannelChanged
attr title "Radio channel, vector"
vector 174 HelloTest.mote[87].wlan[0].radio radioMode:vector ETV
attr interpolationmode sample-hold
attr source radioModeChanged
attr title "Radio mode, vector"
vector 175 HelloTest.mote[87].wlan[0].radio radioChannel:vector ETV
attr interpolationmode sample-hold
attr source radioChannelChanged
attr title "Radio channel, vector"
vector 176 HelloTest.mote[88].wlan[0].radio radioMode:vector ETV
attr interpolationmode sample-hold
attr source radioModeChanged
attr title "Radio mode, vector"
vector 177 HelloTest.mote[88].wlan[0].radio radioChannel:vector ETV
attr interpolationmode sample-hold
attr source radioChannelChanged
attr title "Radio channel, vector"
vector 178 HelloTest.mote[89].wlan[0].radio radioMode:vector ETV
attr interpolationmode sample-hold
attr source radioModeChanged
attr title "Radio mode, vector"
vector 179 HelloTest.mote[89].wlan[0].radio radioChannel:vector ETV
attr interpolationmode sample-hold
attr source radioChannelChanged
attr title "Radio channel, vector"
vector 180 HelloTest.mote[90].wlan[0].radio radioMode:vector ETV
attr interpolationmode sample-hold
attr source radioModeChanged
attr title "Radio mode, vector"
vector 181 HelloTest.mote[90].wlan[0].radio radioChannel:vector ETV
attr interpolationmode sample-hold
attr source radioChannelChanged
attr title "Radio channel, vector"
vector 182 HelloTest.mote[91].wlan[0].radio radioMode:vector ETV
attr interpolationmode sample-hold
attr source radioModeChanged
attr title "Radio mode, vector"
vector 183 HelloTest.mote[91].wlan[0].radio radioChannel:vector ETV
attr interpolationmode sample-hold
attr source radioChannelChanged
attr title "Radio channel, vector"
vector 184 HelloTest.mote[92].wlan[0].radio radioMode:vector ETV
attr interpolationmode sample-hold
attr source radioModeChanged
attr title "Radio mode, vector"
vector 185 HelloTest.mote[92].wlan[0].radio radioChannel:vector ETV
attr interpolationmode sample-hold
attr source radioChannelChanged
attr title "Radio channel, vector"
vector 186 HelloTest.mote[93].wlan[0].radio radioMode:vector ETV
attr interpolationmode sample-hold
attr source radioModeChanged
attr title "Radio mode, vector"
vector 187 HelloTest.mote[93].wlan[0].radio radioChannel:vector ETV
attr interpolationmode sample-hold
attr source radioChannelChanged
attr title "Radio channel, vector"
vector 188 HelloTest.mote[94].wlan[0].radio radioMode:vector ETV
attr interpolationmode sample-hold
attr source radioModeChanged
attr title "Radio mode, vector"
vector 189 HelloTest.mote[94].wlan[0].radio radioChannel:vector ETV
attr interpolationmode sample-hold
attr source radioChannelChanged
attr title "Radio channel, vector"
vector 190 HelloTest.mote[95].wlan[0].radio radioMode:vector ETV
attr interpolationmode sample-hold
attr source radioModeChanged
attr title "Radio mode, vector"
vector 191 HelloTest.mote[95].wlan[0].radio radioChannel:vector ETV
attr interpolationmode sample-hold
attr source radioChannelChanged
attr title "Radio channel, vector"
vector 192 HelloTest.mote[96].wlan[0].radio radioMode:vector ETV
attr interpolationmode sample-hold
attr source radioModeChanged
attr title "Radio mode, vector"
vector 193 HelloTest.mote[96].wlan[0].radio radioChannel:vector ETV
attr interpolationmode sample-hold
attr source radioChannelChanged
attr title "Radio channel, vector"
vector 194 HelloTest.mote[97].wlan[0].radio radioMode:vector ETV
attr interpolationmode sample-hold
attr source radioModeChanged
attr title "Radio mode, vector"
vector 195 HelloTest.mote[97].wlan[0].radio radioChannel:vector ETV
attr interpolationmode sample-hold
attr source radioChannelChanged
attr title "Radio channel, vector"
vector 196 HelloTest.mote[98].wlan[0].radio radioMode:vector ETV
attr interpolationmode sample-hold
attr source radioModeChanged
attr title "Radio mode, vector"
vector 197 HelloTest.mote[98].wlan[0].radio radioChannel:vector ETV
attr interpolationmode sample-hold
attr source radioChannelChanged
attr title "Radio channel, vector"
vector 198 HelloTest.mote[99].wlan[0].radio radioMode:vector ETV
attr interpolationmode sample-hold
attr source radioModeChanged
attr title "Radio mode, vector"
vector 199 HelloTest.mote[99].wlan[0].radio radioChannel:vector ETV
attr interpolationmode sample-hold
attr source radioChannelChanged
attr title "Radio channel, vector"
vector 200 HelloTest.mote[0].wlan[0].radio receptionState:vector ETV
attr interpolationmode sample-hold
attr source receptionStateChanged
attr title "Radio reception state, vector"
vector 201 HelloTest.mote[1].wlan[0].radio receptionState:vector ETV
attr interpolationmode sample-hold
attr source receptionStateChanged
attr title "Radio reception state, vector"
vector 202 HelloTest.mote[2].wlan[0].radio receptionState:vector ETV
attr interpolationmode sample-hold
attr source receptionStateChanged
attr title "Radio reception state, vector"
vector 203 HelloTest.mote[3].wlan[0].radio receptionState:vector ETV
attr interpolationmode sample-hold
attr source receptionStateChanged
attr title "Radio reception state, vector"
vector 204 HelloTest.mote[4].wlan[0].radio receptionState:vector ETV
attr interpolationmode sample-hold
attr source receptionStateChanged
attr title "Radio reception state, vector"
vector 205 HelloTest.mote[5].wlan[0].radio receptionState:vector ETV
attr interpolationmode sample-hold
attr source receptionStateChanged
attr title "Radio reception state, vector"
vector 206 HelloTest.mote[6].wlan[0].radio receptionState:vector ETV
attr interpolationmode sample-hold
attr source receptionStateChanged
attr title "Radio reception state, vector"
vector 207 HelloTest.mote[7].wlan[0].radio receptionState:vector ETV
attr interpolationmode sample-hold
attr source receptionStateChanged
attr title "Radio reception state, vector"
vector 208 HelloTest.mote[8].wlan[0].radio receptionState:vector ETV
attr interpolationmode sample-hold
attr source receptionStateChanged
attr title "Radio reception state, vector"
vector 209 HelloTest.mote[9].wlan[0].radio receptionState:vector ETV
attr interpolationmode sample-hold
attr source receptionStateChanged
attr title "Radio reception state, vector"
vector 210 HelloTest.mote[10].wlan[0].radio receptionState:vector ETV
attr interpolationmode sample-hold
attr source receptionStateChanged
attr title "Radio reception state, vector"
vector 211 HelloTest.mote[11].wlan[0].radio receptionState:vector ETV
attr interpolationmode sample-hold
attr source receptionStateChanged
attr title "Radio reception state, vector"
vector 212 HelloTest.mote[12].wlan[0].radio receptionState:vector ETV
attr interpolationmode sample-hold
attr source receptionStateChanged
attr title "Radio reception state, vector"
vector 213 HelloTest.mote[13].wlan[0].radio receptionState:vector ETV
attr interpolationmode sample-hold
attr source receptionStateChanged
attr title "Radio reception state, vector"
vector 214 HelloTest.mote[14].wlan[0].radio receptionState:vector ETV
attr interpolationmode sample-hold
attr source receptionStateChanged
attr title "Radio reception state, vector"
vector 215 HelloTest.mote[15].wlan[0].radio receptionState:vector ETV
attr interpolationmode sample-hold
attr source receptionStateChanged
attr title "Radio reception state, vector"
vector 216 HelloTest.mote[16].wlan[0].radio receptionState:vector ETV
attr interpolationmode sample-hold
attr source receptionStateChanged
attr title "Radio reception state, vector"
vector 217 HelloTest.mote[17].wlan[0].radio receptionState:vector ETV
attr interpolationmode sample-hold
attr source receptionStateChanged
attr title "Radio reception state, vector"
vector 218 HelloTest.mote[18].wlan[0].radio receptionState:vector ETV
attr interpolationmode sample-hold
attr source receptionStateChanged
attr title "Radio reception state, vector"
vector 219 HelloTest.mote[19].wlan[0].radio receptionState:vector ETV
attr interpolationmode sample-hold
attr source receptionStateChanged
attr title "Radio reception state, vector"
vector 220 HelloTest.mote[20].wlan[0].radio receptionState:vector ETV
attr interpolationmode sample-hold
attr source receptionStateChanged
attr title "Radio reception state, vector"
vector 221 HelloTest.mote[21].wlan[0].radio receptionState:vector ETV
attr interpolationmode sample-hold
attr source receptionStateChanged
attr title "Radio reception state, vector"
vector 222 HelloTest.mote[22].wlan[0].radio receptionState:vector ETV
attr interpolationmode sample-hold
attr source receptionStateChanged
attr title "Radio reception state, vector"
vector 223 HelloTest.mote[23].wlan[0].radio receptionState:vector ETV
attr interpolationmode sample-hold
attr source receptionStateChanged
attr title "Radio reception state, vector"
vector 224 HelloTest.mote[24].wlan[0].radio receptionState:vector ETV
attr interpolationmode sample-hold
attr source receptionStateChanged
attr title "Radio reception state, vector"
vector 225 HelloTest.mote[25].wlan[0].radio receptionState:vector ETV
attr interpolationmode sample-hold
attr source receptionStateChanged
attr title "Radio reception state, vector"
vector 226 HelloTest.mote[26].wlan[0].radio receptionState:vector ETV
attr interpolationmode sample-hold
attr source receptionStateChanged
attr title "Radio reception state, vector"
vector 227 HelloTest.mote[27].wlan[0].radio receptionState:vector ETV
attr interpolationmode sample-hold
attr source receptionStateChanged
attr title "Radio reception state, vector"
vector 228 HelloTest.mote[28].wlan[0].radio receptionState:vector ETV
attr interpolationmode sample-hold
attr source receptionStateChanged
attr title "Radio reception state, vector"
vector 229 HelloTest.mote[29].wlan[0].radio receptionState:vector ETV
attr interpolationmode sample-hold
attr source receptionStateChanged
attr title "Radio reception state, vector"
vector 230 HelloTest.mote[30].wlan[0].radio receptionState:vector ETV
attr interpolationmode sample-hold
attr source receptionStateChanged
attr title "Radio reception state, vector"
vector 231 HelloTest.mote[31].wlan[0].radio receptionState:vector ETV
attr interpolationmode sample-hold
attr source receptionStateChanged
attr title "Radio reception state, vector"
vector 232 HelloTest.mote[32].wlan[0].radio receptionState:vector ETV
attr interpolationmode sample-hold
attr source receptionStateChanged
attr title "Radio reception state, vector"
vector 233 HelloTest.mote[33].wlan[0].radio receptionState:vector ETV
attr interpolationmode sample-hold
attr source receptionStateChanged
attr title "Radio reception state, vector"
vector 234 HelloTest.mote[34].wlan[0].radio receptionState:vector ETV
attr interpolationmode sample-hold
attr source receptionStateChanged
attr title "Radio reception state, vector"
vector 235 HelloTest.mote[35].wlan[0].radio receptionState:vector ETV
attr interpolationmode sample-hold
attr source receptionStateChanged
attr title "Radio reception state, vector"
vector 236 HelloTest.mote[36].wlan[0].radio receptionState:vector ETV
attr interpolationmode sample-hold
attr source receptionStateChanged
attr title "Radio reception state, vector"
vector 237 HelloTest.mote[37].wlan[0].radio receptionState:vector ETV
attr interpolationmode sample-hold
attr source receptionStateChanged
attr title "Radio reception state, vector"
vector 238 HelloTest.mote[38].wlan[0].radio receptionState:vector ETV
attr interpolationmode sample-hold
attr source receptionStateChanged
attr title "Radio reception state, vector"
vector 239 HelloTest.mote[39].wlan[0].radio receptionState:vector ETV
attr interpolationmode sample-hold
attr source receptionStateChanged
attr title "Radio reception state, vector"
vector 240 HelloTest.mote[40].wlan[0].radio receptionState:vector ETV
attr interpolationmode sample-hold
attr source receptionStateChanged
attr title "Radio reception state, vector"
vector 241 HelloTest.mote[41].wlan[0].radio receptionState:vector ETV
attr interpolationmode sample-hold
attr source receptionStateChanged
attr title "Radio reception state, vector"
vector 242 HelloTest.mote[42].wlan[0].radio receptionState:vector ETV
attr interpolationmode sample-hold
attr source receptionStateChanged
attr title "Radio reception state, vector"
vector 243 HelloTest.mote[43].wlan[0].radio receptionState:vector ETV
attr interpolationmode sample-hold
attr source receptionStateChanged
attr title "Radio reception state, vector"
vector 244 HelloTest.mote[44].wlan[0].radio receptionState:vector ETV
attr interpolationmode sample-hold
attr source receptionStateChanged
attr title "Radio reception state, vector"
vector 245 HelloTest.mote[45].wlan[0].radio receptionState:vector ETV
attr interpolationmode sample-hold
attr source receptionStateChanged
attr title "Radio reception state, vector"
vector 246 HelloTest.mote[46].wlan[0].radio receptionState:vector ETV
attr interpolationmode sample-hold
attr source receptionStateChanged
attr title "Radio reception state, vector"
vector 247 HelloTest.mote[47].wlan[0].radio receptionState:vector ETV
attr interpolationmode sample-hold
attr source receptionStateChanged
attr title "Radio reception state, vector"
vector 248 HelloTest.mote[48].wlan[0].radio receptionState:vector ETV
attr interpolationmode sample-hold
attr source receptionStateChanged
attr title "Radio reception state, vector"
vector 249 HelloTest.mote[49].wlan[0].radio receptionState:vector ETV
attr interpolationmode sample-hold
attr source receptionStateChanged
attr title "Radio reception state, vector"
vector 250 HelloTest.mote[50].wlan[0].radio receptionState:vector ETV
attr interpolationmode sample-hold
attr source receptionStateChanged
attr title "Radio reception state, vector"
vector 251 HelloTest.mote[51].wlan[0].radio receptionState:vector ETV
attr interpolationmode sample-hold
attr source receptionStateChanged
attr title "Radio reception state, vector"
vector 252 HelloTest.mote[52].wlan[0].radio receptionState:vector ETV
attr interpolationmode sample-hold
attr source receptionStateChanged
attr title "Radio reception state, vector"
vector 253 HelloTest.mote[53].wlan[0].radio receptionState:vector ETV
attr interpolationmode sample-hold
attr source receptionStateChanged
attr title "Radio reception state, vector"
vector 254 HelloTest.mote[54].wlan[0].radio receptionState:vector ETV
attr interpolationmode sample-hold
attr source receptionStateChanged
attr title "Radio reception state, vector"
vector 255 HelloTest.mote[55].wlan[0].radio receptionState:vector ETV
attr interpolationmode sample-hold
attr source receptionStateChanged
attr title "Radio reception state, vector"
vector 256 HelloTest.mote[56].wlan[0].radio receptionState:vector ETV
attr interpolationmode sample-hold
attr source receptionStateChanged
attr title "Radio reception state, vector"
vector 257 HelloTest.mote[57].wlan[0].radio receptionState:vector ETV
attr interpolationmode sample-hold
attr source receptionStateChanged
attr title "Radio reception state, vector"
vector 258 HelloTest.mote[58].wlan[0].radio receptionState:vector ETV
attr interpolationmode sample-hold
attr source receptionStateChanged
attr title "Radio reception state, vector"
vector 259 HelloTest.mote[59].wlan[0].radio receptionState:vector ETV
attr interpolationmode sample-hold
attr source receptionStateChanged
attr title "Radio reception state, vector"
vector 260 HelloTest.mote[60].wlan[0].radio receptionState:vector ETV
attr interpolationmode sample-hold
attr source receptionStateChanged
attr title "Radio reception state, vector"
vector 261 HelloTest.mote[61].wlan[0].radio receptionState:vector ETV
attr interpolationmode sample-hold
attr source receptionStateChanged
attr title "Radio reception state, vector"
vector 262 HelloTest.mote[62].wlan[0].radio receptionState:vector ETV
attr interpolationmode sample-hold
attr source receptionStateChanged
attr title "Radio reception state, vector"
vector 263 HelloTest.mote[63].wlan[0].radio receptionState:vector ETV
attr interpolationmode sample-hold
attr source receptionStateChanged
attr title "Radio reception state, vector"
vector 264 HelloTest.mote[64].wlan[0].radio receptionState:vector ETV
attr interpolationmode sample-hold
attr source receptionStateChanged
attr title "Radio reception state, vector"
vector 265 HelloTest.mote[65].wlan[0].radio receptionState:vector ETV
attr interpolationmode sample-hold
attr source receptionStateChanged
attr title "Radio reception state, vector"
vector 266 HelloTest.mote[66].wlan[0].radio receptionState:vector ETV
attr interpolationmode sample-hold
attr source receptionStateChanged
attr title "Radio reception state, vector"
vector 267 HelloTest.mote[67].wlan[0].radio receptionState:vector ETV
attr interpolationmode sample-hold
attr source receptionStateChanged
attr title "Radio reception state, vector"
vector 268 HelloTest.mote[68].wlan[0].radio receptionState:vector ETV
attr interpolationmode sample-hold
attr source receptionStateChanged
attr title "Radio reception state, vector"
vector 269 HelloTest.mote[69].wlan[0].radio receptionState:vector ETV
attr interpolationmode sample-hold
attr source receptionStateChanged
attr title "Radio reception state, vector"
vector 270 HelloTest.mote[70].wlan[0].radio receptionState:vector ETV
attr interpolationmode sample-hold
attr source receptionStateChanged
attr title "Radio reception state, vector"
vector 271 HelloTest.mote[71].wlan[0].radio receptionState:vector ETV
attr interpolationmode sample-hold
attr source receptionStateChanged
attr title "Radio reception state, vector"
vector 272 HelloTest.mote[72].wlan[0].radio receptionState:vector ETV
attr interpolationmode sample-hold
attr source receptionStateChanged
attr title "Radio reception state, vector"
vector 273 HelloTest.mote[73].wlan[0].radio receptionState:vector ETV
attr interpolationmode sample-hold
attr source receptionStateChanged
attr title "Radio reception state, vector"
vector 274 HelloTest.mote[74].wlan[0].radio receptionState:vector ETV
attr interpolationmode sample-hold
attr source receptionStateChanged
attr title "Radio reception state, vector"
vector 275 HelloTest.mote[75].wlan[0].radio receptionState:vector ETV
attr interpolationmode sample-hold
attr source receptionStateChanged
attr title "Radio reception state, vector"
vector 276 HelloTest.mote[76].wlan[0].radio receptionState:vector ETV
attr interpolationmode sample-hold
attr source receptionStateChanged
attr title "Radio reception state, vector"
vector 277 HelloTest.mote[77].wlan[0].radio receptionState:vector ETV
attr interpolationmode sample-hold
attr source receptionStateChanged
attr title "Radio reception state, vector"
vector 278 HelloTest.mote[78].wlan[0].radio receptionState:vector ETV
attr interpolationmode sample-hold
attr source receptionStateChanged
attr title "Radio reception state, vector"
vector 279 HelloTest.mote[79].wlan[0].radio receptionState:vector ETV
attr interpolationmode sample-hold
attr source receptionStateChanged
attr title "Radio reception state, vector"
vector 280 HelloTest.mote[80].wlan[0].radio receptionState:vector ETV
attr interpolationmode sample-hold
attr source receptionStateChanged
attr title "Radio reception state, vector"
vector 281 HelloTest.mote[81].wlan[0].radio receptionState:vector ETV
attr interpolationmode sample-hold
attr source receptionStateChanged
attr title "Radio reception state, vector"
vector 282 HelloTest.mote[82].wlan[0].radio receptionState:vector ETV
attr interpolationmode sample-hold
attr source receptionStateChanged
attr title "Radio reception state, vector"
vector 283 HelloTest.mote[83].wlan[0].radio receptionState:vector ETV
attr interpolationmode sample-hold
attr source receptionStateChanged
attr title "Radio reception state, vector"
vector 284 HelloTest.mote[84].wlan[0].radio receptionState:vector ETV
attr interpolationmode sample-hold
attr source receptionStateChanged
attr title "Radio reception state, vector"
vector 285 HelloTest.mote[85].wlan[0].radio receptionState:vector ETV
attr interpolationmode sample-hold
attr source receptionStateChanged
attr title "Radio reception state, vector"
vector 286 HelloTest.mote[86].wlan[0].radio receptionState:vector ETV
attr interpolationmode sample-hold
attr source receptionStateChanged
attr title "Radio reception state, vector"
vector 287 HelloTest.mote[87].wlan[0].radio receptionState:vector ETV
attr interpolationmode sample-hold
attr source receptionStateChanged
attr title "Radio reception state, vector"
vector 288 HelloTest.mote[88].wlan[0].radio receptionState:vector ETV
attr interpolationmode sample-hold
attr source receptionStateChanged
attr title "Radio reception state, vector"
vector 289 HelloTest.mote[89].wlan[0].radio receptionState:vector ETV
attr interpolationmode sample-hold
attr source receptionStateChanged
attr title "Radio reception state, vector"
vector 290 HelloTest.mote[90].wlan[0].radio receptionState:vector ETV
attr interpolationmode sample-hold
attr source receptionStateChanged
attr title "Radio reception state, vector"
vector 291 HelloTest.mote[91].wlan[0].radio receptionState:vector ETV
attr interpolationmode sample-hold
attr source receptionStateChanged
attr title "Radio reception state, vector"
vector 292 HelloTest.mote[92].wlan[0].radio receptionState:vector ETV
attr interpolationmode sample-hold
attr source receptionStateChanged
attr title "Radio reception state, vector"
vector 293 HelloTest.mote[93].wlan[0].radio receptionState:vector ETV
attr interpolationmode sample-hold
attr source receptionStateChanged
attr title "Radio reception state, vector"
vector 294 HelloTest.mote[94].wlan[0].radio receptionState:vector ETV
attr interpolationmode sample-hold
attr source receptionStateChanged
attr title "Radio reception state, vector"
vector 295 HelloTest.mote[95].wlan[0].radio receptionState:vector ETV
attr interpolationmode sample-hold
attr source receptionStateChanged
attr title "Radio reception state, vector"
vector 296 HelloTest.mote[96].wlan[0].radio receptionState:vector ETV
attr interpolationmode sample-hold
attr source receptionStateChanged
attr title "Radio reception state, vector"
vector 297 HelloTest.mote[97].wlan[0].radio receptionState:vector ETV
attr interpolationmode sample-hold
attr source receptionStateChanged
attr title "Radio reception state, vector"
vector 298 HelloTest.mote[98].wlan[0].radio receptionState:vector ETV
attr interpolationmode sample-hold
attr source receptionStateChanged
attr title "Radio reception state, vector"
vector 299 HelloTest.mote[99].wlan[0].radio receptionState:vector ETV
attr interpolationmode sample-hold
attr source receptionStateChanged
attr title "Radio reception state, vector"
vector 300 HelloTest.mote[0].wlan[0].mac.dcf.recoveryProcedure contentionWindowChanged:vector ETV
attr interpolationmode sample-hold
attr title "contention window, vector"
vector 301 HelloTest.mote[1].wlan[0].mac.dcf.recoveryProcedure contentionWindowChanged:vector ETV
attr interpolationmode sample-hold
attr title "contention window, vector"
vector 302 HelloTest.mote[2].wlan[0].mac.dcf.recoveryProcedure contentionWindowChanged:vector ETV
attr interpolationmode sample-hold
attr title "contention window, vector"
vector 303 HelloTest.mote[3].wlan[0].mac.dcf.recoveryProcedure contentionWindowChanged:vector ETV
attr interpolationmode sample-hold
attr title "contention window, vector"
vector 304 HelloTest.mote[4].wlan[0].mac.dcf.recoveryProcedure contentionWindowChanged:vector ETV
attr interpolationmode sample-hold
attr title "contention window, vector"
vector 305 HelloTest.mote[5].wlan[0].mac.dcf.recoveryProcedure contentionWindowChanged:vector ETV
attr interpolationmode sample-hold
attr title "contention window, vector"
vector 306 HelloTest.mote[6].wlan[0].mac.dcf.recoveryProcedure contentionWindowChanged:vector ETV
attr interpolationmode sample-hold
attr title "contention window, vector"
vector 307 HelloTest.mote[7].wlan[0].mac.dcf.recoveryProcedure contentionWindowChanged:vector ETV
attr interpolationmode sample-hold
attr title "contention window, vector"
vector 308 HelloTest.mote[8].wlan[0].mac.dcf.recoveryProcedure contentionWindowChanged:vector ETV
attr interpolationmode sample-hold
attr title "contention window, vector"
vector 309 HelloTest.mote[9].wlan[0].mac.dcf.recoveryProcedure contentionWindowChanged:vector ETV
attr interpolationmode sample-hold
attr title "contention window, vector"
vector 310 HelloTest.mote[10].wlan[0].mac.dcf.recoveryProcedure contentionWindowChanged:vector ETV
attr interpolationmode sample-hold
attr title "contention window, vector"
vector 311 HelloTest.mote[11].wlan[0].mac.dcf.recoveryProcedure contentionWindowChanged:vector ETV
attr interpolationmode sample-hold
attr title "contention window, vector"
vector 312 HelloTest.mote[12].wlan[0].mac.dcf.recoveryProcedure contentionWindowChanged:vector ETV
attr interpolationmode sample-hold
attr title "contention window, vector"
vector 313 HelloTest.mote[13].wlan[0].mac.dcf.recoveryProcedure contentionWindowChanged:vector ETV
attr interpolationmode sample-hold
attr title "contention window, vector"
vector 314 HelloTest.mote[14].wlan[0].mac.dcf.recoveryProcedure contentionWindowChanged:vector ETV
attr interpolationmode sample-hold
attr title "contention window, vector"
vector 315 HelloTest.mote[15].wlan[0].mac.dcf.recoveryProcedure contentionWindowChanged:vector ETV
attr interpolationmode sample-hold
attr title "contention window, vector"
vector 316 HelloTest.mote[16].wlan[0].mac.dcf.recoveryProcedure contentionWindowChanged:vector ETV
attr interpolationmode sample-hold
attr title "contention window, vector"
vector 317 HelloTest.mote[17].wlan[0].mac.dcf.recoveryProcedure contentionWindowChanged:vector ETV
attr interpolationmode sample-hold
attr title "contention window, vector"
vector 318 HelloTest.mote[18].wlan[0].mac.dcf.recoveryProcedure contentionWindowChanged:vector ETV
attr interpolationmode sample-hold
attr title "contention window, vector"
vector 319 HelloTest.mote[19].wlan[0].mac.dcf.recoveryProcedure contentionWindowChanged:vector ETV
attr interpolationmode sample-hold
attr title "contention window, vector"
vector 320 HelloTest.mote[20].wlan[0].mac.dcf.recoveryProcedure contentionWindowChanged:vector ETV
attr interpolationmode sample-hold
attr title "contention window, vector"
vector 321 HelloTest.mote[21].wlan[0].mac.dcf.recoveryProcedure contentionWindowChanged:vector ETV
attr interpolationmode sample-hold
attr title "contention window, vector"
vector 322 HelloTest.mote[22].wlan[0].mac.dcf.recoveryProcedure contentionWindowChanged:vector ETV
attr interpolationmode sample-hold
attr title "contention window, vector"
vector 323 HelloTest.mote[23].wlan[0].mac.dcf.recoveryProcedure contentionWindowChanged:vector ETV
attr interpolationmode sample-hold
attr title "contention window, vector"
vector 324 HelloTest.mote[24].wlan[0].mac.dcf.recoveryProcedure contentionWindowChanged:vector ETV
attr interpolationmode sample-hold
attr title "contention window, vector"
vector 325 HelloTest.mote[25].wlan[0].mac.dcf.recoveryProcedure contentionWindowChanged:vector ETV
attr interpolationmode sample-hold
attr title "contention window, vector"
vector 326 HelloTest.mote[26].wlan[0].mac.dcf.recoveryProcedure contentionWindowChanged:vector ETV
attr interpolationmode sample-hold
attr title "contention window, vector"
vector 327 HelloTest.mote[27].wlan[0].mac.dcf.recoveryProcedure contentionWindowChanged:vector ETV
attr interpolationmode sample-hold
attr title "contention window, vector"
vector 328 HelloTest.mote[28].wlan[0].mac.dcf.recoveryProcedure contentionWindowChanged:vector ETV
attr interpolationmode sample-hold
attr title "contention window, vector"
vector 329 HelloTest.mote[29].wlan[0].mac.dcf.recoveryProcedure contentionWindowChanged:vector ETV
attr interpolationmode sample-hold
attr title "contention window, vector"
vector 330 HelloTest.mote[30].wlan[0].mac.dcf.recoveryProcedure contentionWindowChanged:vector ETV
attr interpolationmode sample-hold
attr title "contention window, vector"
vector 331 HelloTest.mote[31].wlan[0].mac.dcf.recoveryProcedure contentionWindowChanged:vector ETV
attr interpolationmode sample-hold
attr title "contention window, vector"
vector 332 HelloTest.mote[32].wlan[0].mac.dcf.recoveryProcedure contentionWindowChanged:vector ETV
attr interpolationmode sample-hold
attr title "contention window, vector"
vector 333 HelloTest.mote[33].wlan[0].mac.dcf.recoveryProcedure contentionWindowChanged:vector ETV
attr interpolationmode sample-hold
attr title "contention window, vector"
vector 334 HelloTest.mote[34].wlan[0].mac.dcf.recoveryProcedure contentionWindowChanged:vector ETV
attr interpolationmode sample-hold
attr title "contention window, vector"
vector 335 HelloTest.mote[35].wlan[0].mac.dcf.recoveryProcedure contentionWindowChanged:vector ETV
attr interpolationmode sample-hold
attr title "contention window, vector"
vector 336 HelloTest.mote[36].wlan[0].mac.dcf.recoveryProcedure contentionWindowChanged:vector ETV
attr interpolationmode sample-hold
attr title "contention window, vector"
vector 337 HelloTest.mote[37].wlan[0].mac.dcf.recoveryProcedure contentionWindowChanged:vector ETV
attr interpolationmode sample-hold
attr title "contention window, vector"
vector 338 HelloTest.mote[38].wlan[0].mac.dcf.recoveryProcedure contentionWindowChanged:vector ETV
attr interpolationmode sample-hold
attr title "contention window, vector"
vector 339 HelloTest.mote[39].wlan[0].mac.dcf.recoveryProcedure contentionWindowChanged:vector ETV
attr interpolationmode sample-hold
attr title "contention window, vector"
vector 340 HelloTest.mote[40].wlan[0].mac.dcf.recoveryProcedure contentionWindowChanged:vector ETV
attr interpolationmode sample-hold
attr title "contention window, vector"
vector 341 HelloTest.mote[41].wlan[0].mac.dcf.recoveryProcedure contentionWindowChanged:vector ETV
attr interpolationmode sample-hold
attr title "contention window, vector"
vector 342 HelloTest.mote[42].wlan[0].mac.dcf.recoveryProcedure contentionWindowChanged:vector ETV
attr interpolationmode sample-hold
attr title "contention window, vector"
vector 343 HelloTest.mote[43].wlan[0].mac.dcf.recoveryProcedure contentionWindowChanged:vector ETV
attr interpolationmode sample-hold
attr title "contention window, vector"
vector 344 HelloTest.mote[44].wlan[0].mac.dcf.recoveryProcedure contentionWindowChanged:vector ETV
attr interpolationmode sample-hold
attr title "contention window, vector"
vector 345 HelloTest.mote[45].wlan[0].mac.dcf.recoveryProcedure contentionWindowChanged:vector ETV
attr interpolationmode sample-hold
attr title "contention window, vector"
vector 346 HelloTest.mote[46].wlan[0].mac.dcf.recoveryProcedure contentionWindowChanged:vector ETV
attr interpolationmode sample-hold
attr title "contention window, vector"
vector 347 HelloTest.mote[47].wlan[0].mac.dcf.recoveryProcedure contentionWindowChanged:vector ETV
attr interpolationmode sample-hold
attr title "contention window, vector"
vector 348 HelloTest.mote[48].wlan[0].mac.dcf.recoveryProcedure contentionWindowChanged:vector ETV
attr interpolationmode sample-hold
attr title "contention window, vector"
vector 349 HelloTest.mote[49].wlan[0].mac.dcf.recoveryProcedure contentionWindowChanged:vector ETV
attr interpolationmode sample-hold
attr title "contention window, vector"
vector 350 HelloTest.mote[50].wlan[0].mac.dcf.recoveryProcedure contentionWindowChanged:vector ETV
attr interpolationmode sample-hold
attr title "contention window, vector"
vector 351 HelloTest.mote[51].wlan[0].mac.dcf.recoveryProcedure contentionWindowChanged:vector ETV
attr interpolationmode sample-hold
attr title "contention window, vector"
vector 352 HelloTest.mote[52].wlan[0].mac.dcf.recoveryProcedure contentionWindowChanged:vector ETV
attr interpolationmode sample-hold
attr title "contention window, vector"
vector 353 HelloTest.mote[53].wlan[0].mac.dcf.recoveryProcedure contentionWindowChanged:vector ETV
attr interpolationmode sample-hold
attr title "contention window, vector"
vector 354 HelloTest.mote[54].wlan[0].mac.dcf.recoveryProcedure contentionWindowChanged:vector ETV
attr interpolationmode sample-hold
attr title "contention window, vector"
vector 355 HelloTest.mote[55].wlan[0].mac.dcf.recoveryProcedure contentionWindowChanged:vector ETV
attr interpolationmode sample-hold
attr title "contention window, vector"
vector 356 HelloTest.mote[56].wlan[0].mac.dcf.recoveryProcedure contentionWindowChanged:vector ETV
attr interpolationmode sample-hold
attr title "contention window, vector"
vector 357 HelloTest.mote[57].wlan[0].mac.dcf.recoveryProcedure contentionWindowChanged:vector ETV
attr interpolationmode sample-hold
attr title "contention window, vector"
vector 358 HelloTest.mote[58].wlan[0].mac.dcf.recoveryProcedure contentionWindowChanged:vector ETV
attr interpolationmode sample-hold
attr title "contention window, vector"
vector 359 HelloTest.mote[59].wlan[0].mac.dcf.recoveryProcedure contentionWindowChanged:vector ETV
attr interpolationmode sample-hold
attr title "contention window, vector"
vector 360 HelloTest.mote[60].wlan[0].mac.dcf.recoveryProcedure contentionWindowChanged:vector ETV
attr interpolationmode sample-hold
attr title "contention window, vector"
vector 361 HelloTest.mote[61].wlan[0].mac.dcf.recoveryProcedure contentionWindowChanged:vector ETV
attr interpolationmode sample-hold
attr title "contention window, vector"
vector 362 HelloTest.mote[62].wlan[0].mac.dcf.recoveryProcedure contentionWindowChanged:vector ETV
attr interpolationmode sample-hold
attr title "contention window, vector"
vector 363 HelloTest.mote[63].wlan[0].mac.dcf.recoveryProcedure contentionWindowChanged:vector ETV
attr interpolationmode sample-hold
attr title "contention window, vector"
vector 364 HelloTest.mote[64].wlan[0].mac.dcf.recoveryProcedure contentionWindowChanged:vector ETV
attr interpolationmode sample-hold
attr title "contention window, vector"
vector 365 HelloTest.mote[65].wlan[0].mac.dcf.recoveryProcedure contentionWindowChanged:vector ETV
attr interpolationmode sample-hold
attr title "contention window, vector"
vector 366 HelloTest.mote[66].wlan[0].mac.dcf.recoveryProcedure contentionWindowChanged:vector ETV
attr interpolationmode sample-hold
attr title "contention window, vector"
vector 367 HelloTest.mote[67].wlan[0].mac.dcf.recoveryProcedure contentionWindowChanged:vector ETV
attr interpolationmode sample-hold
attr title "contention window, vector"
vector 368 HelloTest.mote[68].wlan[0].mac.dcf.recoveryProcedure contentionWindowChanged:vector ETV
attr interpolationmode sample-hold
attr title "contention window, vector"
vector 369 HelloTest.mote[69].wlan[0].mac.dcf.recoveryProcedure contentionWindowChanged:vector ETV
attr interpolationmode sample-hold
attr title "contention window, vector"
vector 370 HelloTest.mote[70].wlan[0].mac.dcf.recoveryProcedure contentionWindowChanged:vector ETV
attr interpolationmode sample-hold
attr title "contention window, vector"
vector 371 HelloTest.mote[71].wlan[0].mac.dcf.recoveryProcedure contentionWindowChanged:vector ETV
attr interpolationmode sample-hold
attr title "contention window, vector"
vector 372 HelloTest.mote[72].wlan[0].mac.dcf.recoveryProcedure contentionWindowChanged:vector ETV
attr interpolationmode sample-hold
attr title "contention window, vector"
vector 373 HelloTest.mote[73].wlan[0].mac.dcf.recoveryProcedure contentionWindowChanged:vector ETV
attr interpolationmode sample-hold
attr title "contention window, vector"
vector 374 HelloTest.mote[74].wlan[0].mac.dcf.recoveryProcedure contentionWindowChanged:vector ETV
attr interpolationmode sample-hold
attr title "contention window, vector"
vector 375 HelloTest.mote[75].wlan[0].mac.dcf.recoveryProcedure contentionWindowChanged:vector ETV
attr interpolationmode sample-hold
attr title "contention window, vector"
vector 376 HelloTest.mote[76].wlan[0].mac.dcf.recoveryProcedure contentionWindowChanged:vector ETV
attr interpolationmode sample-hold
attr title "contention window, vector"
vector 377 HelloTest.mote[77].wlan[0].mac.dcf.recoveryProcedure contentionWindowChanged:vector ETV
attr interpolationmode sample-hold
attr title "contention window, vector"
vector 378 HelloTest.mote[78].wlan[0].mac.dcf.recoveryProcedure contentionWindowChanged:vector ETV
attr interpolationmode sample-hold
attr title "contention window, vector"
vector 379 HelloTest.mote[79].wlan[0].mac.dcf.recoveryProcedure contentionWindowChanged:vector ETV
attr interpolationmode sample-hold
attr title "contention window, vector"
vector 380 HelloTest.mote[80].wlan[0].mac.dcf.recoveryProcedure contentionWindowChanged:vector ETV
attr interpolationmode sample-hold
attr title "contention window, vector"
vector 381 HelloTest.mote[81].wlan[0].mac.dcf.recoveryProcedure contentionWindowChanged:vector ETV
attr interpolationmode sample-hold
attr title "contention window, vector"
vector 382 HelloTest.mote[82].wlan[0].mac.dcf.recoveryProcedure contentionWindowChanged:vector ETV
attr interpolationmode sample-hold
attr title "contention window, vector"
vector 383 HelloTest.mote[83].wlan[0].mac.dcf.recoveryProcedure contentionWindowChanged:vector ETV
attr interpolationmode sample-hold
attr title "contention window, vector"
vector 384 HelloTest.mote[84].wlan[0].mac.dcf.recoveryProcedure contentionWindowChanged:vector ETV
attr interpolationmode sample-hold
attr title "contention window, vector"
vector 385 HelloTest.mote[85].wlan[0].mac.dcf.recoveryProcedure contentionWindowChanged:vector ETV
attr interpolationmode sample-hold
attr title "contention window, vector"
vector 386 HelloTest.mote[86].wlan[0].mac.dcf.recoveryProcedure contentionWindowChanged:vector ETV
attr interpolationmode sample-hold
attr title "contention window, vector"
vector 387 HelloTest.mote[87].wlan[0].mac.dcf.recoveryProcedure contentionWindowChanged:vector ETV
attr interpolationmode sample-hold
attr title "contention window, vector"
vector 388 HelloTest.mote[88].wlan[0].mac.dcf.recoveryProcedure contentionWindowChanged:vector ETV
attr interpolationmode sample-hold
attr title "contention window, vector"
vector 389 HelloTest.mote[89].wlan[0].mac.dcf.recoveryProcedure contentionWindowChanged:vector ETV
attr interpolationmode sample-hold
attr title "contention window, vector"
vector 390 HelloTest.mote[90].wlan[0].mac.dcf.recoveryProcedure contentionWindowChanged:vector ETV
attr interpolationmode sample-hold
attr title "contention window, vector"
vector 391 HelloTest.mote[91].wlan[0].mac.dcf.recoveryProcedure contentionWindowChanged:vector ETV
attr interpolationmode sample-hold
attr title "contention window, vector"
vector 392 HelloTest.mote[92].wlan[0].mac.dcf.recoveryProcedure contentionWindowChanged:vector ETV
attr interpolationmode sample-hold
attr title "contention window, vector"
vector 393 HelloTest.mote[93].wlan[0].mac.dcf.recoveryProcedure contentionWindowChanged:vector ETV
attr interpolationmode sample-hold
attr title "contention window, vector"
vector 394 HelloTest.mote[94].wlan[0].mac.dcf.recoveryProcedure contentionWindowChanged:vector ETV
attr interpolationmode sample-hold
attr title "contention window, vector"
vector 395 HelloTest.mote[95].wlan[0].mac.dcf.recoveryProcedure contentionWindowChanged:vector ETV
attr interpolationmode sample-hold
attr title "contention window, vector"
vector 396 HelloTest.mote[96].wlan[0].mac.dcf.recoveryProcedure contentionWindowChanged:vector ETV
attr interpolationmode sample-hold
attr title "contention window, vector"
vector 397 HelloTest.mote[97].wlan[0].mac.dcf.recoveryProcedure contentionWindowChanged:vector ETV
attr interpolationmode sample-hold
attr title "contention window, vector"
vector 398 HelloTest.mote[98].wlan[0].mac.dcf.recoveryProcedure contentionWindowChanged:vector ETV
attr interpolationmode sample-hold
attr title "contention window, vector"
vector 399 HelloTest.mote[99].wlan[0].mac.dcf.recoveryProcedure contentionWindowChanged:vector ETV
attr interpolationmode sample-hold
attr title "contention window, vector"
vector 400 HelloTest.mote[17].wlan[0].mac packetReceivedFromUpper:vector(packetBytes) ETV
attr interpolationmode none
attr title "packets received from upper layer, vector(packetBytes)"
vector 401 HelloTest.mote[17].wlan[0].mac.dcf.channelAccess.pendingQueue packetPushed:vector(packetBytes) ETV
attr interpolationmode none
attr title "packet pushed, vector(packetBytes)"
vector 402 HelloTest.mote[17].wlan[0].mac.dcf.channelAccess.pendingQueue queueLength:vector ETV
attr interpolationmode sample-hold
attr source "count(packetPushed) - count(packetPopped) - count(packetRemoved) - count(packetDropped)"
attr title "queue length, vector"
vector 403 HelloTest.mote[17].wlan[0].mac.dcf.channelAccess.contention backoffPeriodGenerated:vector ETV
attr interpolationmode none
attr title "backoff periods, vector"
vector 404 HelloTest.mote[17].wlan[0].mac.dcf.channelAccess.contention backoffActive:vector ETV
attr interpolationmode sample-hold
attr source count(backoffStarted)-count(backoffStopped)
attr title "backoff active, vector"
vector 405 HelloTest.mote[17].wlan[0].mac.dcf.channelAccess.pendingQueue packetPopped:vector(packetBytes) ETV
attr interpolationmode none
attr title "packet popped, vector(packetBytes)"
vector 406 HelloTest.mote[17].wlan[0].mac.dcf.channelAccess.pendingQueue queueingTime:vector ETV
attr interpolationmode none
attr source queueingTime(packetPopped)
attr title "queueing times, vector"
attr unit s
vector 407 HelloTest.mote[17].wlan[0].mac.dcf.channelAccess.inProgressFrames queueLength:vector ETV
attr interpolationmode sample-hold
attr source "count(packetEnqueued) - count(packetDequeued)"
attr title "queue length, vector"
vector 408 HelloTest.mote[17].wlan[0].mac.dcf datarateSelected:vector ETV
attr interpolationmode none
attr title "datarates selected, vector"
vector 409 HelloTest.mote[17].wlan[0].mac packetSentToLower:vector(packetBytes) ETV
attr interpolationmode none
attr title "packets sent to lower layer, vector(packetBytes)"
vector 410 HelloTest.mote[17].wlan[0].mac.dcf frameSequenceActive:vector ETV
attr interpolationmode sample-hold
attr source count(frameSequenceStarted)-count(frameSequenceFinished)
attr title "frame sequence active, vector"
vector 411 HelloTest.mote[17].wlan[0].radio transmissionState:vector ETV
attr interpolationmode sample-hold
attr source transmissionStateChanged
attr title "Radio transmission state, vector"
vector 412 HelloTest.mote[17].wlan[0].mac.dcf packetSentToPeer:vector(packetBytes) ETV
attr interpolationmode none
attr title "packets sent, vector(packetBytes)"
vector 413 HelloTest.mote[17].wlan[0].mac.dcf packetSentToPeerMulticast:vector(packetBytes) ETV
attr interpolationmode none
attr source ieee80211Multicast(packetSentToPeer)
attr title "packets sent: multicast, vector(packetBytes)"
vector 414 HelloTest.mote[17].wlan[0].mac.dcf packetSentToPeerBroadcast:vector(packetBytes) ETV
attr interpolationmode none
attr source ieee80211Broadcast(packetSentToPeer)
attr title "packets sent: broadcast , vector(packetBytes)"
vector 415 HelloTest.mote[17].wlan[0].mac.dcf packetSentToPeerWithoutRetry:vector(packetBytes) ETV
attr interpolationmode none
attr source ieee80211NotRetry(packetSentToPeer)
attr title "packets sent: without retry, vector(packetBytes)"
vector 416 HelloTest.mote[17].wlan[0].mac.dcf.channelAccess.inProgressFrames queueingTime:vector ETV
attr interpolationmode none
attr source queueingTime(packetDequeued)
attr title "queueing times, vector"
vector 417 HelloTest.mote[27].wlan[0].mac packetReceivedFromLower:vector(packetBytes) ETV
attr interpolationmode none
attr title "packets received from lower layer, vector(packetBytes)"
vector 418 HelloTest.mote[27].wlan[0].mac.dcf packetReceivedFromPeer:vector(packetBytes) ETV
attr interpolationmode none
attr title "packets received, vector(packetBytes)"
vector 419 HelloTest.mote[27].wlan[0].mac.dcf packetReceivedFromPeerMulticast:vector(packetBytes) ETV
attr interpolationmode none
attr source ieee80211Multicast(packetReceivedFromPeer)
attr title "packets received: multicast, vector(packetBytes)"
vector 420 HelloTest.mote[27].wlan[0].mac.dcf packetReceivedFromPeerBroadcast:vector(packetBytes) ETV
attr interpolationmode none
attr source ieee80211Broadcast(packetReceivedFromPeer)
attr title "packets received: broadcast, vector(packetBytes)"
vector 421 HelloTest.mote[27].wlan[0].mac.dcf packetReceivedFromPeerWithoutRetry:vector(packetBytes) ETV
attr interpolationmode none
attr source ieee80211NotRetry(packetReceivedFromPeer)
attr title "packets received: without retry, vector(packetBytes)"
vector 422 HelloTest.mote[27].wlan[0].mac packetSentToUpper:vector(packetBytes) ETV
attr interpolationmode none
attr title "packets sent to upper layer, vector(packetBytes)"
vector 423 HelloTest.mote[16].wlan[0].mac packetReceivedFromLower:vector(packetBytes) ETV
attr interpolationmode none
attr title "packets received from lower layer, vector(packetBytes)"
vector 424 HelloTest.mote[16].wlan[0].mac.dcf packetReceivedFromPeer:vector(packetBytes) ETV
attr interpolationmode none
attr title "packets received, vector(packetBytes)"
vector 425 HelloTest.mote[16].wlan[0].mac.dcf packetReceivedFromPeerMulticast:vector(packetBytes) ETV
attr interpolationmode none
attr source ieee80211Multicast(packetReceivedFromPeer)
attr title "packets received: multicast, vector(packetBytes)"
vector 426 HelloTest.mote[16].wlan[0].mac.dcf packetReceivedFromPeerBroadcast:vector(packetBytes) ETV
attr interpolationmode none
attr source ieee80211Broadcast(packetReceivedFromPeer)
attr title "packets received: broadcast, vector(packetBytes)"
vector 427 HelloTest.mote[16].wlan[0].mac.dcf packetReceivedFromPeerWithoutRetry:vector(packetBytes) ETV
attr interpolationmode none
attr source ieee80211NotRetry(packetReceivedFromPeer)
attr title "packets received: without retry, vector(packetBytes)"
vector 428 HelloTest.mote[16].wlan[0].mac packetSentToUpper:vector(packetBytes) ETV
attr interpolationmode none
attr title "packets sent to upper layer, vector(packetBytes)"
vector 429 HelloTest.mote[7].wlan[0].mac packetReceivedFromLower:vector(packetBytes) ETV
attr interpolationmode none
attr title "packets received from lower layer, vector(packetBytes)"
vector 430 HelloTest.mote[7].wlan[0].mac.dcf packetReceivedFromPeer:vector(packetBytes) ETV
attr interpolationmode none
attr title "packets received, vector(packetBytes)"
vector 431 HelloTest.mote[7].wlan[0].mac.dcf packetReceivedFromPeerMulticast:vector(packetBytes) ETV
attr interpolationmode none
attr source ieee80211Multicast(packetReceivedFromPeer)
attr title "packets received: multicast, vector(packetBytes)"
vector 432 HelloTest.mote[7].wlan[0].mac.dcf packetReceivedFromPeerBroadcast:vector(packetBytes) ETV
attr interpolationmode none
attr source ieee80211Broadcast(packetReceivedFromPeer)
attr title "packets received: broadcast, vector(packetBytes)"
vector 433 HelloTest.mote[7].wlan[0].mac.dcf packetReceivedFromPeerWithoutRetry:vector(packetBytes) ETV
attr interpolationmode none
attr source ieee80211NotRetry(packetReceivedFromPeer)
attr title "packets received: without retry, vector(packetBytes)"
vector 434 HelloTest.mote[7].wlan[0].mac packetSentToUpper:vector(packetBytes) ETV
attr interpolationmode none
attr title "packets sent to upper layer, vector(packetBytes)"
vector 435 HelloTest.mote[18].wlan[0].mac packetReceivedFromLower:vector(packetBytes) ETV
attr interpolationmode none
attr title "packets received from lower layer, vector(packetBytes)"
vector 436 HelloTest.mote[18].wlan[0].mac.dcf packetReceivedFromPeer:vector(packetBytes) ETV
attr interpolationmode none
attr title "packets received, vector(packetBytes)"
vector 437 HelloTest.mote[18].wlan[0].mac.dcf packetReceivedFromPeerMulticast:vector(packetBytes) ETV
attr interpolationmode none
attr source ieee80211Multicast(packetReceivedFromPeer)
attr title "packets received: multicast, vector(packetBytes)"
vector 438 HelloTest.mote[18].wlan[0].mac.dcf packetReceivedFromPeerBroadcast:vector(packetBytes) ETV
attr interpolationmode none
attr source ieee80211Broadcast(packetReceivedFromPeer)
attr title "packets received: broadcast, vector(packetBytes)"
vector 439 HelloTest.mote[18].wlan[0].mac.dcf packetReceivedFromPeerWithoutRetry:vector(packetBytes) ETV
attr interpolationmode none
attr source ieee80211NotRetry(packetReceivedFromPeer)
attr title "packets received: without retry, vector(packetBytes)"
vector 440 HelloTest.mote[18].wlan[0].mac packetSentToUpper:vector(packetBytes) ETV
attr interpolationmode none
attr title "packets sent to upper layer, vector(packetBytes)"
vector 441 HelloTest.mote[26].wlan[0].mac packetReceivedFromLower:vector(packetBytes) ETV
attr interpolationmode none
attr title "packets received from lower layer, vector(packetBytes)"
vector 442 HelloTest.mote[26].wlan[0].mac.dcf packetReceivedFromPeer:vector(packetBytes) ETV
attr interpolationmode none
attr title "packets received, vector(packetBytes)"
vector 443 HelloTest.mote[26].wlan[0].mac.dcf packetReceivedFromPeerMulticast:vector(packetBytes) ETV
attr interpolationmode none
attr source ieee80211Multicast(packetReceivedFromPeer)
attr title "packets received: multicast, vector(packetBytes)"
vector 444 HelloTest.mote[26].wlan[0].mac.dcf packetReceivedFromPeerBroadcast:vector(packetBytes) ETV
attr interpolationmode none
attr source ieee80211Broadcast(packetReceivedFromPeer)
attr title "packets received: broadcast, vector(packetBytes)"
vector 445 HelloTest.mote[26].wlan[0].mac.dcf packetReceivedFromPeerWithoutRetry:vector(packetBytes) ETV
attr interpolationmode none
attr source ieee80211NotRetry(packetReceivedFromPeer)
attr title "packets received: without retry, vector(packetBytes)"
[...]
1453	2402	33.67247718852	2
1453	2413	33.67253118852	1
1453	2414	33.67253118852	0
1454	2413	33.67253118852	74
1455	2413	33.67253118852	74
1456	2413	33.67253118852	74
1457	2413	33.67253118852	74
1458	2413	33.67253118852	5.4e-05
1459	2458	33.737264829688	46
1460	2458	33.737264829688	74
1461	2458	33.737264829688	1
1461	2460	33.737264829688	0
1462	2458	33.737264829688	6
1463	2458	33.737264829688	1
1463	2459	33.737264829688	0
1464	2460	33.737264829688	74
1465	2460	33.737264829688	0
1466	2460	33.737264829688	1
1466	2483	33.737318829688	0
1467	2460	33.737264829688	24000000
1468	2460	33.737264829688	74
1469	2460	33.737264829688	1
1469	2483	33.737318829688	0
1470	2461	33.737264829688	1
1470	2462	33.737264829688	2
1470	2483	33.737318829688	1
1470	2484	33.737318829688	0
1471	2483	33.737318829688	74
1472	2483	33.737318829688	74
1473	2483	33.737318829688	74
1474	2483	33.737318829688	74
1475	2483	33.737318829688	5.4e-05
1476	2568	33.941895605531	46
1477	2568	33.941895605531	74
1478	2568	33.941895605531	1
1478	2570	33.941895605531	0
1479	2568	33.941895605531	4
1480	2568	33.941895605531	1
1480	2569	33.941895605531	0
1481	2570	33.941895605531	74
1482	2570	33.941895605531	0
1483	2570	33.941895605531	1
1483	2593	33.941949605531	0
1484	2570	33.941895605531	24000000
1485	2570	33.941895605531	74
1486	2570	33.941895605531	1
1486	2593	33.941949605531	0
1487	2571	33.941895605531	1
1487	2572	33.941895605531	2
1487	2593	33.941949605531	1
1487	2594	33.941949605531	0
1488	2593	33.941949605531	74
1489	2593	33.941949605531	74
1490	2593	33.941949605531	74
1491	2593	33.941949605531	74
1492	2593	33.941949605531	5.4e-05
1493	2678	33.970232263673	46
1494	2678	33.970232263673	74
1495	2678	33.970232263673	1
1495	2680	33.970232263673	0
1496	2678	33.970232263673	4
1497	2678	33.970232263673	1
1497	2679	33.970232263673	0
1498	2680	33.970232263673	74
1499	2680	33.970232263673	0
1500	2680	33.970232263673	1
1500	2703	33.970286263673	0
1501	2680	33.970232263673	24000000
1502	2680	33.970232263673	74
1503	2680	33.970232263673	1
1503	2703	33.970286263673	0
1504	2681	33.970232263673	1
1504	2682	33.970232263673	2
1504	2703	33.970286263673	1
1504	2704	33.970286263673	0
1505	2703	33.970286263673	74
1506	2703	33.970286263673	74
1507	2703	33.970286263673	74
1508	2703	33.970286263673	74
1509	2703	33.970286263673	5.4e-05
1510	2788	34.009397478076	46
1511	2788	34.009397478076	74
1512	2788	34.009397478076	1
1512	2790	34.009397478076	0
1513	2788	34.009397478076	2
1514	2788	34.009397478076	1
1514	2789	34.009397478076	0
1515	2790	34.009397478076	74
1516	2790	34.009397478076	0
1517	2790	34.009397478076	1
1517	2810	34.009451478076	0
1518	2790	34.009397478076	24000000
1519	2790	34.009397478076	74
1520	2790	34.009397478076	1
1520	2810	34.009451478076	0
1521	2791	34.009397478076	1
1521	2792	34.009397478076	2
1521	2810	34.009451478076	1
1521	2811	34.009451478076	0
1522	2810	34.009451478076	74
1523	2810	34.009451478076	74
1524	2810	34.009451478076	74
1525	2810	34.009451478076	74
1526	2810	34.009451478076	5.4e-05
1527	2883	34.296529853018	46
1528	2883	34.296529853018	74
1529	2883	34.296529853018	1
1529	2885	34.296529853018	0
1530	2883	34.296529853018	2
1531	2883	34.296529853018	1
1531	2884	34.296529853018	0
1532	2885	34.296529853018	74
1533	2885	34.296529853018	0
1534	2885	34.296529853018	1
1534	2900	34.296583853018	0
1535	2885	34.296529853018	24000000
1536	2885	34.296529853018	74
1537	2885	34.296529853018	1
1537	2900	34.296583853018	0
1538	2886	34.296529853018	1
1538	2887	34.296529853018	2
1538	2900	34.296583853018	1
1538	2901	34.296583853018	0
1539	2900	34.296583853018	74
1540	2900	34.296583853018	74
1541	2900	34.296583853018	74
1542	2900	34.296583853018	74
1543	2900	34.296583853018	5.4e-05
1544	2953	34.370660707355	46
1545	2953	34.370660707355	74
1546	2953	34.370660707355	1
1546	2955	34.370660707355	0
1547	2953	34.370660707355	1
1548	2953	34.370660707355	1
1548	2954	34.370660707355	0
1549	2955	34.370660707355	74
1550	2955	34.370660707355	0
1551	2955	34.370660707355	1
1551	2978	34.370714707355	0
1552	2955	34.370660707355	24000000
1553	2955	34.370660707355	74
1554	2955	34.370660707355	1
1554	2978	34.370714707355	0
1555	2956	34.370660707355	1
1555	2957	34.370660707355	2
1555	2978	34.370714707355	1
1555	2979	34.370714707355	0
1556	2978	34.370714707355	74
1557	2978	34.370714707355	74
1558	2978	34.370714707355	74
1559	2978	34.370714707355	74
1560	2978	34.370714707355	5.4e-05
1561	3063	34.7420007654	46
1562	3063	34.7420007654	74
1563	3063	34.7420007654	1
1563	3065	34.7420007654	0
1564	3063	34.7420007654	5
1565	3063	34.7420007654	1
1565	3064	34.7420007654	0
1566	3065	34.7420007654	74
1567	3065	34.7420007654	0
1568	3065	34.7420007654	1
1568	3088	34.7420547654	0
1569	3065	34.7420007654	24000000
1570	3065	34.7420007654	74
1571	3065	34.7420007654	1
1571	3088	34.7420547654	0
1572	3066	34.7420007654	1
1572	3067	34.7420007654	2
1572	3088	34.7420547654	1
1572	3089	34.7420547654	0
1573	3088	34.7420547654	74
1574	3088	34.7420547654	74
1575	3088	34.7420547654	74
1576	3088	34.7420547654	74
1577	3088	34.7420547654	5.4e-05
1578	3173	34.849770659348	46
1579	3173	34.849770659348	74
1580	3173	34.849770659348	1
1580	3175	34.849770659348	0
1581	3173	34.849770659348	3
1582	3173	34.849770659348	1
1582	3174	34.849770659348	0
1583	3175	34.849770659348	74
1584	3175	34.849770659348	0
1585	3175	34.849770659348	1
1585	3188	34.849824659348	0
1586	3175	34.849770659348	24000000
1587	3175	34.849770659348	74
1588	3175	34.849770659348	1
1588	3188	34.849824659348	0
1589	3176	34.849770659348	1
1589	3177	34.849770659348	2
1589	3188	34.849824659348	1
1589	3189	34.849824659348	0
1590	3188	34.849824659348	74
1591	3188	34.849824659348	74
1592	3188	34.849824659348	74
1593	3188	34.849824659348	74
1594	3188	34.849824659348	5.4e-05
1595	3232	34.853302810807	46
1596	3232	34.853302810807	74
1597	3232	34.853302810807	1
1597	3234	34.853302810807	0
1598	3232	34.853302810807	6
1599	3232	34.853302810807	1
1599	3233	34.853302810807	0
1600	3234	34.853302810807	74
1601	3234	34.853302810807	0
1602	3234	34.853302810807	1
1602	3257	34.853356810807	0
1603	3234	34.853302810807	24000000
1604	3234	34.853302810807	74
1605	3234	34.853302810807	1
1605	3257	34.853356810807	0
1606	3235	34.853302810807	1
1606	3236	34.853302810807	2
1606	3257	34.853356810807	1
1606	3258	34.853356810807	0
1607	3257	34.853356810807	74
1608	3257	34.853356810807	74
1609	3257	34.853356810807	74
1610	3257	34.853356810807	74
1611	3257	34.853356810807	5.4e-05
1612	3343	34.954257323407	46
1613	3343	34.954257323407	74
1614	3343	34.954257323407	1
1614	3345	34.954257323407	0
1615	3343	34.954257323407	1
1616	3343	34.954257323407	1
1616	3344	34.954257323407	0
1617	3345	34.954257323407	74
1618	3345	34.954257323407	0
1619	3345	34.954257323407	1
1619	3355	34.954311323407	0
1620	3345	34.954257323407	24000000
1621	3345	34.954257323407	74
1622	3345	34.954257323407	1
1622	3355	34.954311323407	0
1623	3346	34.954257323407	1
1623	3347	34.954257323407	2
1623	3355	34.954311323407	1
1623	3356	34.954311323407	0
1624	3355	34.954311323407	74
1625	3355	34.954311323407	74
1626	3355	34.954311323407	74
1627	3355	34.954311323407	74
1628	3355	34.954311323407	5.4e-05
1629	3388	35.028631256428	46
1630	3388	35.028631256428	74
1631	3388	35.028631256428	1
1631	3390	35.028631256428	0
1632	3388	35.028631256428	1
1633	3388	35.028631256428	1
1633	3389	35.028631256428	0
1634	3390	35.028631256428	74
1635	3390	35.028631256428	0
1636	3390	35.028631256428	1
1636	3413	35.028685256428	0
1637	3390	35.028631256428	24000000
1638	3390	35.028631256428	74
1639	3390	35.028631256428	1
1639	3413	35.028685256428	0
1640	3391	35.028631256428	1
1640	3392	35.028631256428	2
1640	3413	35.028685256428	1
1640	3414	35.028685256428	0
1641	3413	35.028685256428	74
1642	3413	35.028685256428	74
1643	3413	35.028685256428	74
1644	3413	35.028685256428	74
1645	3413	35.028685256428	5.4e-05
1646	3498	35.125601120526	46
1647	3498	35.125601120526	74
1648	3498	35.125601120526	1
1648	3500	35.125601120526	0
1649	3498	35.125601120526	7
1650	3498	35.125601120526	1
1650	3499	35.125601120526	0
1651	3500	35.125601120526	74
1652	3500	35.125601120526	0
1653	3500	35.125601120526	1
1653	3520	35.125655120526	0
1654	3500	35.125601120526	24000000
1655	3500	35.125601120526	74
1656	3500	35.125601120526	1
1656	3520	35.125655120526	0
1657	3501	35.125601120526	1
1657	3502	35.125601120526	2
1657	3520	35.125655120526	1
1657	3521	35.125655120526	0
1658	3520	35.125655120526	74
1659	3520	35.125655120526	74
1660	3520	35.125655120526	74
1661	3520	35.125655120526	74
1662	3520	35.125655120526	5.4e-05
1663	3593	35.193756393855	46
1664	3593	35.193756393855	74
1665	3593	35.193756393855	1
1665	3595	35.193756393855	0
1666	3593	35.193756393855	5
1667	3593	35.193756393855	1
1667	3594	35.193756393855	0
1668	3595	35.193756393855	74
1669	3595	35.193756393855	0
1670	3595	35.193756393855	1
1670	3615	35.193810393855	0
1671	3595	35.193756393855	24000000
1672	3595	35.193756393855	74
1673	3595	35.193756393855	1
1673	3615	35.193810393855	0
1674	3596	35.193756393855	1
1674	3597	35.193756393855	2
1674	3615	35.193810393855	1
1674	3616	35.193810393855	0
1675	3615	35.193810393855	74
1676	3615	35.193810393855	74
1677	3615	35.193810393855	74
1678	3615	35.193810393855	74
1679	3615	35.193810393855	5.4e-05
1680	3687	35.199927598005	46
1681	3687	35.199927598005	74
1682	3687	35.199927598005	1
1682	3689	35.199927598005	0
1683	3687	35.199927598005	6
1684	3687	35.199927598005	1
1684	3688	35.199927598005	0
1685	3689	35.199927598005	74
1686	3689	35.199927598005	0
1687	3689	35.199927598005	1
1687	3702	35.199981598005	0
1688	3689	35.199927598005	24000000
1689	3689	35.199927598005	74
1690	3689	35.199927598005	1
1690	3702	35.199981598005	0
1691	3690	35.199927598005	1
1691	3691	35.199927598005	2
1691	3702	35.199981598005	1
1691	3703	35.199981598005	0
1692	3702	35.199981598005	74
1693	3702	35.199981598005	74
1694	3702	35.199981598005	74
1695	3702	35.199981598005	74
1696	3702	35.199981598005	5.4e-05
1697	3748	35.504809903214	46
1698	3748	35.504809903214	74
1699	3748	35.504809903214	1
1699	3750	35.504809903214	0
1700	3748	35.504809903214	6
1701	3748	35.504809903214	1
1701	3749	35.504809903214	0
1702	3750	35.504809903214	74
1703	3750	35.504809903214	0
1704	3750	35.504809903214	1
1704	3773	35.504863903214	0
1705	3750	35.504809903214	24000000
1706	3750	35.504809903214	74
1707	3750	35.504809903214	1
1707	3773	35.504863903214	0
1708	3751	35.504809903214	1
1708	3752	35.504809903214	2
1708	3773	35.504863903214	1
1708	3774	35.504863903214	0
1709	3773	35.504863903214	74
1710	3773	35.504863903214	74
1711	3773	35.504863903214	74
1712	3773	35.504863903214	74
1713	3773	35.504863903214	5.4e-05
1714	3858	35.608411193825	46
1715	3858	35.608411193825	74
1716	3858	35.608411193825	1
1716	3860	35.608411193825	0
1717	3858	35.608411193825	3
1718	3858	35.608411193825	1
1718	3859	35.608411193825	0
1719	3860	35.608411193825	74
1720	3860	35.608411193825	0
1721	3860	35.608411193825	1
1721	3877	35.608465193825	0
1722	3860	35.608411193825	24000000
1723	3860	35.608411193825	74
1724	3860	35.608411193825	1
1724	3877	35.608465193825	0
1725	3861	35.608411193825	1
1725	3862	35.608411193825	2
1725	3877	35.608465193825	1
1725	3878	35.608465193825	0
1726	3877	35.608465193825	74
1727	3877	35.608465193825	74
1728	3877	35.608465193825	74
1729	3877	35.608465193825	74
1730	3877	35.608465193825	5.4e-05
1731	3938	35.639905646676	46
1732	3938	35.639905646676	74
1733	3938	35.639905646676	1
1733	3940	35.639905646676	0
1734	3938	35.639905646676	7
1735	3938	35.639905646676	1
1735	3939	35.639905646676	0
1736	3940	35.639905646676	74
1737	3940	35.639905646676	0
1738	3940	35.639905646676	1
1738	3960	35.639959646676	0
1739	3940	35.639905646676	24000000
1740	3940	35.639905646676	74
1741	3940	35.639905646676	1
1741	3960	35.639959646676	0
1742	3941	35.639905646676	1
1742	3942	35.639905646676	2
1742	3960	35.639959646676	1
1742	3961	35.639959646676	0
1743	3960	35.639959646676	74
1744	3960	35.639959646676	74
1745	3960	35.639959646676	74
1746	3960	35.639959646676	74
1747	3960	35.639959646676	5.4e-05
1748	4032	35.646303574322	46
1749	4032	35.646303574322	74
1750	4032	35.646303574322	1
1750	4034	35.646303574322	0
1751	4032	35.646303574322	0
1752	4032	35.646303574322	1
1752	4033	35.646303574322	0
1753	4034	35.646303574322	74
1754	4034	35.646303574322	0
1755	4034	35.646303574322	1
1755	4057	35.646357574322	0
1756	4034	35.646303574322	24000000
1757	4034	35.646303574322	74
1758	4034	35.646303574322	1
1758	4057	35.646357574322	0
1759	4035	35.646303574322	1
1759	4036	35.646303574322	2
1759	4057	35.646357574322	1
1759	4058	35.646357574322	0
1760	4057	35.646357574322	74
1761	4057	35.646357574322	74
1762	4057	35.646357574322	74
1763	4057	35.646357574322	74
1764	4057	35.646357574322	5.4e-05
1765	4143	35.711227365537	46
1766	4143	35.711227365537	74
1767	4143	35.711227365537	1
1767	4145	35.711227365537	0
1768	4143	35.711227365537	7
1769	4143	35.711227365537	1
1769	4144	35.711227365537	0
1770	4145	35.711227365537	74
1771	4145	35.711227365537	0
1772	4145	35.711227365537	1
1772	4160	35.711281365537	0
1773	4145	35.711227365537	24000000
1774	4145	35.711227365537	74
1775	4145	35.711227365537	1
1775	4160	35.711281365537	0
1776	4146	35.711227365537	1
1776	4147	35.711227365537	2
1776	4160	35.711281365537	1
1776	4161	35.711281365537	0
1777	4160	35.711281365537	74
1778	4160	35.711281365537	74
1779	4160	35.711281365537	74
1780	4160	35.711281365537	74
1781	4160	35.711281365537	5.4e-05
1782	4213	35.792281273752	46
1783	4213	35.792281273752	74
1784	4213	35.792281273752	1
1784	4215	35.792281273752	0
1785	4213	35.792281273752	1
1786	4213	35.792281273752	1
1786	4214	35.792281273752	0
1787	4215	35.792281273752	74
1788	4215	35.792281273752	0
1789	4215	35.792281273752	1
1789	4235	35.792335273752	0
1790	4215	35.792281273752	24000000
1791	4215	35.792281273752	74
1792	4215	35.792281273752	1
1792	4235	35.792335273752	0
1793	4216	35.792281273752	1
1793	4217	35.792281273752	2
1793	4235	35.792335273752	1
1793	4236	35.792335273752	0
1794	4235	35.792335273752	74
1795	4235	35.792335273752	74
1796	4235	35.792335273752	74
1797	4235	35.792335273752	74
1798	4235	35.792335273752	5.4e-05
1799	4308	35.808924998855	46
1800	4308	35.808924998855	74
1801	4308	35.808924998855	1
1801	4310	35.808924998855	0
1802	4308	35.808924998855	4
1803	4308	35.808924998855	1
1803	4309	35.808924998855	0
1804	4310	35.808924998855	74
1805	4310	35.808924998855	0
1806	4310	35.808924998855	1
1806	4325	35.808978998855	0
1807	4310	35.808924998855	24000000
1808	4310	35.808924998855	74
1809	4310	35.808924998855	1
1809	4325	35.808978998855	0
1810	4311	35.808924998855	1
1810	4312	35.808924998855	2
1810	4325	35.808978998855	1
1810	4326	35.808978998855	0
1811	4325	35.808978998855	74
1812	4325	35.808978998855	74
1813	4325	35.808978998855	74
1814	4325	35.808978998855	74
1815	4325	35.808978998855	5.4e-05
1816	4378	36.016640185844	46
1817	4378	36.016640185844	74
1818	4378	36.016640185844	1
1818	4380	36.016640185844	0
1819	4378	36.016640185844	2
1820	4378	36.016640185844	1
1820	4379	36.016640185844	0
1821	4380	36.016640185844	74
1822	4380	36.016640185844	0
1823	4380	36.016640185844	1
1823	4400	36.016694185844	0
1824	4380	36.016640185844	24000000
1825	4380	36.016640185844	74
1826	4380	36.016640185844	1
1826	4400	36.016694185844	0
1827	4381	36.016640185844	1
1827	4382	36.016640185844	2
1827	4400	36.016694185844	1
1827	4401	36.016694185844	0
1828	4400	36.016694185844	74
1829	4400	36.016694185844	74
1830	4400	36.016694185844	74
1831	4400	36.016694185844	74
1832	4400	36.016694185844	5.4e-05
1833	4473	36.100351520581	46
1834	4473	36.100351520581	74
1835	4473	36.100351520581	1
1835	4475	36.100351520581	0
1836	4473	36.100351520581	3
1837	4473	36.100351520581	1
1837	4474	36.100351520581	0
1838	4475	36.100351520581	74
1839	4475	36.100351520581	0
1840	4475	36.100351520581	1
1840	4492	36.100405520581	0
1841	4475	36.100351520581	24000000
1842	4475	36.100351520581	74
1843	4475	36.100351520581	1
1843	4492	36.100405520581	0
1844	4476	36.100351520581	1
1844	4477	36.100351520581	2
1844	4492	36.100405520581	1
1844	4493	36.100405520581	0
1845	4492	36.100405520581	74
1846	4492	36.100405520581	74
1847	4492	36.100405520581	74
1848	4492	36.100405520581	74
1849	4492	36.100405520581	5.4e-05
1850	4553	36.139687788673	46
1851	4553	36.139687788673	74
1852	4553	36.139687788673	1
1852	4555	36.139687788673	0
1853	4553	36.139687788673	2
1854	4553	36.139687788673	1
1854	4554	36.139687788673	0
1855	4555	36.139687788673	74
1856	4555	36.139687788673	0
1857	4555	36.139687788673	1
1857	4570	36.139741788673	0
1858	4555	36.139687788673	24000000
1859	4555	36.139687788673	74
1860	4555	36.139687788673	1
1860	4570	36.139741788673	0
1861	4556	36.139687788673	1
1861	4557	36.139687788673	2
1861	4570	36.139741788673	1
1861	4571	36.139741788673	0
1862	4570	36.139741788673	74
1863	4570	36.139741788673	74
1864	4570	36.139741788673	74
1865	4570	36.139741788673	74
1866	4570	36.139741788673	5.4e-05
1867	4623	36.603353385581	46
1868	4623	36.603353385581	74
1869	4623	36.603353385581	1
1869	4625	36.603353385581	0
1870	4623	36.603353385581	5
1871	4623	36.603353385581	1
1871	4624	36.603353385581	0
1872	4625	36.603353385581	74
1873	4625	36.603353385581	0
1874	4625	36.603353385581	1
1874	4638	36.603407385581	0
1875	4625	36.603353385581	24000000
1876	4625	36.603353385581	74
1877	4625	36.603353385581	1
1877	4638	36.603407385581	0
1878	4626	36.603353385581	1
1878	4627	36.603353385581	2
1878	4638	36.603407385581	1
1878	4639	36.603407385581	0
1879	4638	36.603407385581	74
1880	4638	36.603407385581	74
1881	4638	36.603407385581	74
1882	4638	36.603407385581	74
1883	4638	36.603407385581	5.4e-05
1884	4683	37.085686860373	46
1885	4683	37.085686860373	74
1886	4683	37.085686860373	1
1886	4685	37.085686860373	0
1887	4683	37.085686860373	4
1888	4683	37.085686860373	1
1888	4684	37.085686860373	0
1889	4685	37.085686860373	74
1890	4685	37.085686860373	0
1891	4685	37.085686860373	1
1891	4708	37.085740860373	0
1892	4685	37.085686860373	24000000
1893	4685	37.085686860373	74
1894	4685	37.085686860373	1
1894	4708	37.085740860373	0
1895	4686	37.085686860373	1
1895	4687	37.085686860373	2
1895	4708	37.085740860373	1
1895	4709	37.085740860373	0
1896	4708	37.085740860373	74
1897	4708	37.085740860373	74
1898	4708	37.085740860373	74
1899	4708	37.085740860373	74
1900	4708	37.085740860373	5.4e-05
1901	4793	37.41223681136	46
1902	4793	37.41223681136	74
1903	4793	37.41223681136	1
1903	4795	37.41223681136	0
1904	4793	37.41223681136	2
1905	4793	37.41223681136	1
1905	4794	37.41223681136	0
1906	4795	37.41223681136	74
1907	4795	37.41223681136	0
1908	4795	37.41223681136	1
1908	4815	37.41229081136	0
1909	4795	37.41223681136	24000000
1910	4795	37.41223681136	74
1911	4795	37.41223681136	1
1911	4815	37.41229081136	0
1912	4796	37.41223681136	1
1912	4797	37.41223681136	2
1912	4815	37.41229081136	1
1912	4816	37.41229081136	0
1913	4815	37.41229081136	74
1914	4815	37.41229081136	74
1915	4815	37.41229081136	74
1916	4815	37.41229081136	74
1917	4815	37.41229081136	5.4e-05
1918	4888	37.475117185386	46
1919	4888	37.475117185386	74
1920	4888	37.475117185386	1
1920	4890	37.475117185386	0
1921	4888	37.475117185386	6
1922	4888	37.475117185386	1
1922	4889	37.475117185386	0
1923	4890	37.475117185386	74
1924	4890	37.475117185386	0
1925	4890	37.475117185386	1
1925	4913	37.475171185386	0
1926	4890	37.475117185386	24000000
1927	4890	37.475117185386	74
1928	4890	37.475117185386	1
1928	4913	37.475171185386	0
1929	4891	37.475117185386	1
1929	4892	37.475117185386	2
1929	4913	37.475171185386	1
1929	4914	37.475171185386	0
1930	4913	37.475171185386	74
1931	4913	37.475171185386	74
1932	4913	37.475171185386	74
1933	4913	37.475171185386	74
1934	4913	37.475171185386	5.4e-05
1935	4998	37.730731742922	46
1936	4998	37.730731742922	74
1937	4998	37.730731742922	1
1937	5000	37.730731742922	0
1938	4998	37.730731742922	1
1939	4998	37.730731742922	1
1939	4999	37.730731742922	0
1940	5000	37.730731742922	74
1941	5000	37.730731742922	0
1942	5000	37.730731742922	1
1943	5000	37.730731742922	24000000
1944	5000	37.730731742922	74
1945	5000	37.730731742922	1
1946	5001	37.730731742922	1
1946	5002	37.730731742922	2

