file 637591 1592448789                                          
version 2
run Hello-0-20200617-21:44:39-5419
attr configname Hello
attr datetime 20200617-21:44:39
attr experiment Hello
attr inifile omnetpp.ini
attr iterationvars $0=10
attr iterationvarsf 10-
attr measurement $0=10
attr network HelloTest
attr processid 5419
attr repetition 0
attr replication #0
attr resultdir results
attr runnumber 0
attr seedset 10
param **.mote[*].mobility.numHosts 100
param **.moteNumber 100
param **.mobility.typename "\"StaticGridMobility\""
param **.mobility.initFromDisplayString false
param **.enl.np.typename "\"ProbabilisticBroadcast\""
param **.broadcastTime 30s
param **.bcastDelay 15s
param **.maxAttemps 3
param **.wlan[*].typename "\"Ieee80211Interface\""
param **.wlan[*].radio.typename "\"Ieee80211ScalarRadio\""
param **.wlan[*].channelNumber 1
param **.wlan[*].radio.transmitter.power 20mW
param **.wlan[*].radio.transmitter.bitrate 18Mbps
param **.wlan[*].radio.receiver.sensitivity -85dBm
param **.wlan[*].radio.receiver.snirThreshold 4dB
param **.wlan[*].mac.dcf.channelAccess.cwMin 7
param **.wlan[*].mgmt.typename "\"Ieee80211MgmtAdhoc\""
param **.wlan[*].agent.typename "\"\""
param **.radioMedium.typename "\"Ieee80211ScalarRadioMedium\""
param **.radioMedium.neighborCache.typename "\"QuadTreeNeighborCache\""
param **.radioMedium.neighborCache.maxNumOfPointsPerQuadrant 16
param **.radioMedium.neighborCache.radioMediumModule "\"radioMedium\""
param **.radioMedium.rangeFilter "\"communicationRange\""
param **.radioMedium.mediumLimitCache.minReceptionPower -85dBm
param **.radioMedium.neighborCache.refillPeriod 3600s
param **.radioMedium.pathLoss.alpha 3.5
param **.radioMedium.mediumLimitCache.centerFrequency 2.412GHz
param **.constraintAreaMinX 0m
param **.constraintAreaMinY 0m
param **.constraintAreaMinZ 0m
param **.constraintAreaMaxX 200m
param **.constraintAreaMaxY 200m
param **.constraintAreaMaxZ 0m

vector 0 HelloTest.mote[0].wlan[0].radio radioMode:vector ETV
attr interpolationmode sample-hold
attr source radioModeChanged
attr title "Radio mode, vector"
vector 1 HelloTest.mote[0].wlan[0].radio radioChannel:vector ETV
attr interpolationmode sample-hold
attr source radioChannelChanged
attr title "Radio channel, vector"
vector 2 HelloTest.mote[1].wlan[0].radio radioMode:vector ETV
attr interpolationmode sample-hold
attr source radioModeChanged
attr title "Radio mode, vector"
vector 3 HelloTest.mote[1].wlan[0].radio radioChannel:vector ETV
attr interpolationmode sample-hold
attr source radioChannelChanged
attr title "Radio channel, vector"
vector 4 HelloTest.mote[2].wlan[0].radio radioMode:vector ETV
attr interpolationmode sample-hold
attr source radioModeChanged
attr title "Radio mode, vector"
vector 5 HelloTest.mote[2].wlan[0].radio radioChannel:vector ETV
attr interpolationmode sample-hold
attr source radioChannelChanged
attr title "Radio channel, vector"
vector 6 HelloTest.mote[3].wlan[0].radio radioMode:vector ETV
attr interpolationmode sample-hold
attr source radioModeChanged
attr title "Radio mode, vector"
vector 7 HelloTest.mote[3].wlan[0].radio radioChannel:vector ETV
attr interpolationmode sample-hold
attr source radioChannelChanged
attr title "Radio channel, vector"
vector 8 HelloTest.mote[4].wlan[0].radio radioMode:vector ETV
attr interpolationmode sample-hold
attr source radioModeChanged
attr title "Radio mode, vector"
vector 9 HelloTest.mote[4].wlan[0].radio radioChannel:vector ETV
attr interpolationmode sample-hold
attr source radioChannelChanged
attr title "Radio channel, vector"
vector 10 HelloTest.mote[5].wlan[0].radio radioMode:vector ETV
attr interpolationmode sample-hold
attr source radioModeChanged
attr title "Radio mode, vector"
vector 11 HelloTest.mote[5].wlan[0].radio radioChannel:vector ETV
attr interpolationmode sample-hold
attr source radioChannelChanged
attr title "Radio channel, vector"
vector 12 HelloTest.mote[6].wlan[0].radio radioMode:vector ETV
attr interpolationmode sample-hold
attr source radioModeChanged
attr title "Radio mode, vector"
vector 13 HelloTest.mote[6].wlan[0].radio radioChannel:vector ETV
attr interpolationmode sample-hold
attr source radioChannelChanged
attr title "Radio channel, vector"
vector 14 HelloTest.mote[7].wlan[0].radio radioMode:vector ETV
attr interpolationmode sample-hold
attr source radioModeChanged
attr title "Radio mode, vector"
vector 15 HelloTest.mote[7].wlan[0].radio radioChannel:vector ETV
attr interpolationmode sample-hold
attr source radioChannelChanged
attr title "Radio channel, vector"
vector 16 HelloTest.mote[8].wlan[0].radio radioMode:vector ETV
attr interpolationmode sample-hold
attr source radioModeChanged
attr title "Radio mode, vector"
vector 17 HelloTest.mote[8].wlan[0].radio radioChannel:vector ETV
attr interpolationmode sample-hold
attr source radioChannelChanged
attr title "Radio channel, vector"
vector 18 HelloTest.mote[9].wlan[0].radio radioMode:vector ETV
attr interpolationmode sample-hold
attr source radioModeChanged
attr title "Radio mode, vector"
vector 19 HelloTest.mote[9].wlan[0].radio radioChannel:vector ETV
attr interpolationmode sample-hold
attr source radioChannelChanged
attr title "Radio channel, vector"
vector 20 HelloTest.mote[10].wlan[0].radio radioMode:vector ETV
attr interpolationmode sample-hold
attr source radioModeChanged
attr title "Radio mode, vector"
vector 21 HelloTest.mote[10].wlan[0].radio radioChannel:vector ETV
attr interpolationmode sample-hold
attr source radioChannelChanged
attr title "Radio channel, vector"
vector 22 HelloTest.mote[11].wlan[0].radio radioMode:vector ETV
attr interpolationmode sample-hold
attr source radioModeChanged
attr title "Radio mode, vector"
vector 23 HelloTest.mote[11].wlan[0].radio radioChannel:vector ETV
attr interpolationmode sample-hold
attr source radioChannelChanged
attr title "Radio channel, vector"
vector 24 HelloTest.mote[12].wlan[0].radio radioMode:vector ETV
attr interpolationmode sample-hold
attr source radioModeChanged
attr title "Radio mode, vector"
vector 25 HelloTest.mote[12].wlan[0].radio radioChannel:vector ETV
attr interpolationmode sample-hold
attr source radioChannelChanged
attr title "Radio channel, vector"
vector 26 HelloTest.mote[13].wlan[0].radio radioMode:vector ETV
attr interpolationmode sample-hold
attr source radioModeChanged
attr title "Radio mode, vector"
vector 27 HelloTest.mote[13].wlan[0].radio radioChannel:vector ETV
attr interpolationmode sample-hold
attr source radioChannelChanged
attr title "Radio channel, vector"
vector 28 HelloTest.mote[14].wlan[0].radio radioMode:vector ETV
attr interpolationmode sample-hold
attr source radioModeChanged
attr title "Radio mode, vector"
vector 29 HelloTest.mote[14].wlan[0].radio radioChannel:vector ETV
attr interpolationmode sample-hold
attr source radioChannelChanged
attr title "Radio channel, vector"
vector 30 HelloTest.mote[15].wlan[0].radio radioMode:vector ETV
attr interpolationmode sample-hold
attr source radioModeChanged
attr title "Radio mode, vector"
vector 31 HelloTest.mote[15].wlan[0].radio radioChannel:vector ETV
attr interpolationmode sample-hold
attr source radioChannelChanged
attr title "Radio channel, vector"
vector 32 HelloTest.mote[16].wlan[0].radio radioMode:vector ETV
attr interpolationmode sample-hold
attr source radioModeChanged
attr title "Radio mode, vector"
vector 33 HelloTest.mote[16].wlan[0].radio radioChannel:vector ETV
attr interpolationmode sample-hold
attr source radioChannelChanged
attr title "Radio channel, vector"
vector 34 HelloTest.mote[17].wlan[0].radio radioMode:vector ETV
attr interpolationmode sample-hold
attr source radioModeChanged
attr title "Radio mode, vector"
vector 35 HelloTest.mote[17].wlan[0].radio radioChannel:vector ETV
attr interpolationmode sample-hold
attr source radioChannelChanged
attr title "Radio channel, vector"
vector 36 HelloTest.mote[18].wlan[0].radio radioMode:vector ETV
attr interpolationmode sample-hold
attr source radioModeChanged
attr title "Radio mode, vector"
vector 37 HelloTest.mote[18].wlan[0].radio radioChannel:vector ETV
attr interpolationmode sample-hold
attr source radioChannelChanged
attr title "Radio channel, vector"
vector 38 HelloTest.mote[19].wlan[0].radio radioMode:vector ETV
attr interpolationmode sample-hold
attr source radioModeChanged
attr title "Radio mode, vector"
vector 39 HelloTest.mote[19].wlan[0].radio radioChannel:vector ETV
attr interpolationmode sample-hold
attr source radioChannelChanged
attr title "Radio channel, vector"
vector 40 HelloTest.mote[20].wlan[0].radio radioMode:vector ETV
attr interpolationmode sample-hold
attr source radioModeChanged
attr title "Radio mode, vector"
vector 41 HelloTest.mote[20].wlan[0].radio radioChannel:vector ETV
attr interpolationmode sample-hold
attr source radioChannelChanged
attr title "Radio channel, vector"
vector 42 HelloTest.mote[21].wlan[0].radio radioMode:vector ETV
attr interpolationmode sample-hold
attr source radioModeChanged
attr title "Radio mode, vector"
vector 43 HelloTest.mote[21].wlan[0].radio radioChannel:vector ETV
attr interpolationmode sample-hold
attr source radioChannelChanged
attr title "Radio channel, vector"
vector 44 HelloTest.mote[22].wlan[0].radio radioMode:vector ETV
attr interpolationmode sample-hold
attr source radioModeChanged
attr title "Radio mode, vector"
vector 45 HelloTest.mote[22].wlan[0].radio radioChannel:vector ETV
attr interpolationmode sample-hold
attr source radioChannelChanged
attr title "Radio channel, vector"
vector 46 HelloTest.mote[23].wlan[0].radio radioMode:vector ETV
attr interpolationmode sample-hold
attr source radioModeChanged
attr title "Radio mode, vector"
vector 47 HelloTest.mote[23].wlan[0].radio radioChannel:vector ETV
attr interpolationmode sample-hold
attr source radioChannelChanged
attr title "Radio channel, vector"
vector 48 HelloTest.mote[24].wlan[0].radio radioMode:vector ETV
attr interpolationmode sample-hold
attr source radioModeChanged
attr title "Radio mode, vector"
vector 49 HelloTest.mote[24].wlan[0].radio radioChannel:vector ETV
attr interpolationmode sample-hold
attr source radioChannelChanged
attr title "Radio channel, vector"
vector 50 HelloTest.mote[25].wlan[0].radio radioMode:vector ETV
attr interpolationmode sample-hold
attr source radioModeChanged
attr title "Radio mode, vector"
vector 51 HelloTest.mote[25].wlan[0].radio radioChannel:vector ETV
attr interpolationmode sample-hold
attr source radioChannelChanged
attr title "Radio channel, vector"
vector 52 HelloTest.mote[26].wlan[0].radio radioMode:vector ETV
attr interpolationmode sample-hold
attr source radioModeChanged
attr title "Radio mode, vector"
vector 53 HelloTest.mote[26].wlan[0].radio radioChannel:vector ETV
attr interpolationmode sample-hold
attr source radioChannelChanged
attr title "Radio channel, vector"
vector 54 HelloTest.mote[27].wlan[0].radio radioMode:vector ETV
attr interpolationmode sample-hold
attr source radioModeChanged
attr title "Radio mode, vector"
vector 55 HelloTest.mote[27].wlan[0].radio radioChannel:vector ETV
attr interpolationmode sample-hold
attr source radioChannelChanged
attr title "Radio channel, vector"
vector 56 HelloTest.mote[28].wlan[0].radio radioMode:vector ETV
attr interpolationmode sample-hold
attr source radioModeChanged
attr title "Radio mode, vector"
vector 57 HelloTest.mote[28].wlan[0].radio radioChannel:vector ETV
attr interpolationmode sample-hold
attr source radioChannelChanged
attr title "Radio channel, vector"
vector 58 HelloTest.mote[29].wlan[0].radio radioMode:vector ETV
attr interpolationmode sample-hold
attr source radioModeChanged
attr title "Radio mode, vector"
vector 59 HelloTest.mote[29].wlan[0].radio radioChannel:vector ETV
attr interpolationmode sample-hold
attr source radioChannelChanged
attr title "Radio channel, vector"
vector 60 HelloTest.mote[30].wlan[0].radio radioMode:vector ETV
attr interpolationmode sample-hold
attr source radioModeChanged
attr title "Radio mode, vector"
vector 61 HelloTest.mote[30].wlan[0].radio radioChannel:vector ETV
attr interpolationmode sample-hold
attr source radioChannelChanged
attr title "Radio channel, vector"
vector 62 HelloTest.mote[31].wlan[0].radio radioMode:vector ETV
attr interpolationmode sample-hold
attr source radioModeChanged
attr title "Radio mode, vector"
vector 63 HelloTest.mote[31].wlan[0].radio radioChannel:vector ETV
attr interpolationmode sample-hold
attr source radioChannelChanged
attr title "Radio channel, vector"
vector 64 HelloTest.mote[32].wlan[0].radio radioMode:vector ETV
attr interpolationmode sample-hold
attr source radioModeChanged
attr title "Radio mode, vector"
vector 65 HelloTest.mote[32].wlan[0].radio radioChannel:vector ETV
attr interpolationmode sample-hold
attr source radioChannelChanged
attr title "Radio channel, vector"
vector 66 HelloTest.mote[33].wlan[0].radio radioMode:vector ETV
attr interpolationmode sample-hold
attr source radioModeChanged
attr title "Radio mode, vector"
vector 67 HelloTest.mote[33].wlan[0].radio radioChannel:vector ETV
attr interpolationmode sample-hold
attr source radioChannelChanged
attr title "Radio channel, vector"
vector 68 HelloTest.mote[34].wlan[0].radio radioMode:vector ETV
attr interpolationmode sample-hold
attr source radioModeChanged
attr title "Radio mode, vector"
vector 69 HelloTest.mote[34].wlan[0].radio radioChannel:vector ETV
attr interpolationmode sample-hold
attr source radioChannelChanged
attr title "Radio channel, vector"
vector 70 HelloTest.mote[35].wlan[0].radio radioMode:vector ETV
attr interpolationmode sample-hold
attr source radioModeChanged
attr title "Radio mode, vector"
vector 71 HelloTest.mote[35].wlan[0].radio radioChannel:vector ETV
attr interpolationmode sample-hold
attr source radioChannelChanged
attr title "Radio channel, vector"
vector 72 HelloTest.mote[36].wlan[0].radio radioMode:vector ETV
attr interpolationmode sample-hold
attr source radioModeChanged
attr title "Radio mode, vector"
vector 73 HelloTest.mote[36].wlan[0].radio radioChannel:vector ETV
attr interpolationmode sample-hold
attr source radioChannelChanged
attr title "Radio channel, vector"
vector 74 HelloTest.mote[37].wlan[0].radio radioMode:vector ETV
attr interpolationmode sample-hold
attr source radioModeChanged
attr title "Radio mode, vector"
vector 75 HelloTest.mote[37].wlan[0].radio radioChannel:vector ETV
attr interpolationmode sample-hold
attr source radioChannelChanged
attr title "Radio channel, vector"
vector 76 HelloTest.mote[38].wlan[0].radio radioMode:vector ETV
attr interpolationmode sample-hold
attr source radioModeChanged
attr title "Radio mode, vector"
vector 77 HelloTest.mote[38].wlan[0].radio radioChannel:vector ETV
attr interpolationmode sample-hold
attr source radioChannelChanged
attr title "Radio channel, vector"
vector 78 HelloTest.mote[39].wlan[0].radio radioMode:vector ETV
attr interpolationmode sample-hold
attr source radioModeChanged
attr title "Radio mode, vector"
vector 79 HelloTest.mote[39].wlan[0].radio radioChannel:vector ETV
attr interpolationmode sample-hold
attr source radioChannelChanged
attr title "Radio channel, vector"
vector 80 HelloTest.mote[40].wlan[0].radio radioMode:vector ETV
attr interpolationmode sample-hold
attr source radioModeChanged
attr title "Radio mode, vector"
vector 81 HelloTest.mote[40].wlan[0].radio radioChannel:vector ETV
attr interpolationmode sample-hold
attr source radioChannelChanged
attr title "Radio channel, vector"
vector 82 HelloTest.mote[41].wlan[0].radio radioMode:vector ETV
attr interpolationmode sample-hold
attr source radioModeChanged
attr title "Radio mode, vector"
vector 83 HelloTest.mote[41].wlan[0].radio radioChannel:vector ETV
attr interpolationmode sample-hold
attr source radioChannelChanged
attr title "Radio channel, vector"
vector 84 HelloTest.mote[42].wlan[0].radio radioMode:vector ETV
attr interpolationmode sample-hold
attr source radioModeChanged
attr title "Radio mode, vector"
vector 85 HelloTest.mote[42].wlan[0].radio radioChannel:vector ETV
attr interpolationmode sample-hold
attr source radioChannelChanged
attr title "Radio channel, vector"
vector 86 HelloTest.mote[43].wlan[0].radio radioMode:vector ETV
attr interpolationmode sample-hold
attr source radioModeChanged
attr title "Radio mode, vector"
vector 87 HelloTest.mote[43].wlan[0].radio radioChannel:vector ETV
attr interpolationmode sample-hold
attr source radioChannelChanged
attr title "Radio channel, vector"
vector 88 HelloTest.mote[44].wlan[0].radio radioMode:vector ETV
attr interpolationmode sample-hold
attr source radioModeChanged
attr title "Radio mode, vector"
vector 89 HelloTest.mote[44].wlan[0].radio radioChannel:vector ETV
attr interpolationmode sample-hold
attr source radioChannelChanged
attr title "Radio channel, vector"
vector 90 HelloTest.mote[45].wlan[0].radio radioMode:vector ETV
attr interpolationmode sample-hold
attr source radioModeChanged
attr title "Radio mode, vector"
vector 91 HelloTest.mote[45].wlan[0].radio radioChannel:vector ETV
attr interpolationmode sample-hold
attr source radioChannelChanged
attr title "Radio channel, vector"
vector 92 HelloTest.mote[46].wlan[0].radio radioMode:vector ETV
attr interpolationmode sample-hold
attr source radioModeChanged
attr title "Radio mode, vector"
vector 93 HelloTest.mote[46].wlan[0].radio radioChannel:vector ETV
attr interpolationmode sample-hold
attr source radioChannelChanged
attr title "Radio channel, vector"
vector 94 HelloTest.mote[47].wlan[0].radio radioMode:vector ETV
attr interpolationmode sample-hold
attr source radioModeChanged
attr title "Radio mode, vector"
vector 95 HelloTest.mote[47].wlan[0].radio radioChannel:vector ETV
attr interpolationmode sample-hold
attr source radioChannelChanged
attr title "Radio channel, vector"
vector 96 HelloTest.mote[48].wlan[0].radio radioMode:vector ETV
attr interpolationmode sample-hold
attr source radioModeChanged
attr title "Radio mode, vector"
vector 97 HelloTest.mote[48].wlan[0].radio radioChannel:vector ETV
attr interpolationmode sample-hold
attr source radioChannelChanged
attr title "Radio channel, vector"
vector 98 HelloTest.mote[49].wlan[0].radio radioMode:vector ETV
attr interpolationmode sample-hold
attr source radioModeChanged
attr title "Radio mode, vector"
vector 99 HelloTest.mote[49].wlan[0].radio radioChannel:vector ETV
attr interpolationmode sample-hold
attr source radioChannelChanged
attr title "Radio channel, vector"
vector 100 HelloTest.mote[50].wlan[0].radio radioMode:vector ETV
attr interpolationmode sample-hold
attr source radioModeChanged
attr title "Radio mode, vector"
vector 101 HelloTest.mote[50].wlan[0].radio radioChannel:vector ETV
attr interpolationmode sample-hold
attr source radioChannelChanged
attr title "Radio channel, vector"
vector 102 HelloTest.mote[51].wlan[0].radio radioMode:vector ETV
attr interpolationmode sample-hold
attr source radioModeChanged
attr title "Radio mode, vector"
vector 103 HelloTest.mote[51].wlan[0].radio radioChannel:vector ETV
attr interpolationmode sample-hold
attr source radioChannelChanged
attr title "Radio channel, vector"
vector 104 HelloTest.mote[52].wlan[0].radio radioMode:vector ETV
attr interpolationmode sample-hold
attr source radioModeChanged
attr title "Radio mode, vector"
vector 105 HelloTest.mote[52].wlan[0].radio radioChannel:vector ETV
attr interpolationmode sample-hold
attr source radioChannelChanged
attr title "Radio channel, vector"
vector 106 HelloTest.mote[53].wlan[0].radio radioMode:vector ETV
attr interpolationmode sample-hold
attr source radioModeChanged
attr title "Radio mode, vector"
vector 107 HelloTest.mote[53].wlan[0].radio radioChannel:vector ETV
attr interpolationmode sample-hold
attr source radioChannelChanged
attr title "Radio channel, vector"
vector 108 HelloTest.mote[54].wlan[0].radio radioMode:vector ETV
attr interpolationmode sample-hold
attr source radioModeChanged
attr title "Radio mode, vector"
vector 109 HelloTest.mote[54].wlan[0].radio radioChannel:vector ETV
attr interpolationmode sample-hold
attr source radioChannelChanged
attr title "Radio channel, vector"
vector 110 HelloTest.mote[55].wlan[0].radio radioMode:vector ETV
attr interpolationmode sample-hold
attr source radioModeChanged
attr title "Radio mode, vector"
vector 111 HelloTest.mote[55].wlan[0].radio radioChannel:vector ETV
attr interpolationmode sample-hold
attr source radioChannelChanged
attr title "Radio channel, vector"
vector 112 HelloTest.mote[56].wlan[0].radio radioMode:vector ETV
attr interpolationmode sample-hold
attr source radioModeChanged
attr title "Radio mode, vector"
vector 113 HelloTest.mote[56].wlan[0].radio radioChannel:vector ETV
attr interpolationmode sample-hold
attr source radioChannelChanged
attr title "Radio channel, vector"
vector 114 HelloTest.mote[57].wlan[0].radio radioMode:vector ETV
attr interpolationmode sample-hold
attr source radioModeChanged
attr title "Radio mode, vector"
vector 115 HelloTest.mote[57].wlan[0].radio radioChannel:vector ETV
attr interpolationmode sample-hold
attr source radioChannelChanged
attr title "Radio channel, vector"
vector 116 HelloTest.mote[58].wlan[0].radio radioMode:vector ETV
attr interpolationmode sample-hold
attr source radioModeChanged
attr title "Radio mode, vector"
vector 117 HelloTest.mote[58].wlan[0].radio radioChannel:vector ETV
attr interpolationmode sample-hold
attr source radioChannelChanged
attr title "Radio channel, vector"
vector 118 HelloTest.mote[59].wlan[0].radio radioMode:vector ETV
attr interpolationmode sample-hold
attr source radioModeChanged
attr title "Radio mode, vector"
vector 119 HelloTest.mote[59].wlan[0].radio radioChannel:vector ETV
attr interpolationmode sample-hold
attr source radioChannelChanged
attr title "Radio channel, vector"
vector 120 HelloTest.mote[60].wlan[0].radio radioMode:vector ETV
attr interpolationmode sample-hold
attr source radioModeChanged
attr title "Radio mode, vector"
vector 121 HelloTest.mote[60].wlan[0].radio radioChannel:vector ETV
attr interpolationmode sample-hold
attr source radioChannelChanged
attr title "Radio channel, vector"
vector 122 HelloTest.mote[61].wlan[0].radio radioMode:vector ETV
attr interpolationmode sample-hold
attr source radioModeChanged
attr title "Radio mode, vector"
vector 123 HelloTest.mote[61].wlan[0].radio radioChannel:vector ETV
attr interpolationmode sample-hold
attr source radioChannelChanged
attr title "Radio channel, vector"
vector 124 HelloTest.mote[62].wlan[0].radio radioMode:vector ETV
attr interpolationmode sample-hold
attr source radioModeChanged
attr title "Radio mode, vector"
vector 125 HelloTest.mote[62].wlan[0].radio radioChannel:vector ETV
attr interpolationmode sample-hold
attr source radioChannelChanged
attr title "Radio channel, vector"
vector 126 HelloTest.mote[63].wlan[0].radio radioMode:vector ETV
attr interpolationmode sample-hold
attr source radioModeChanged
attr title "Radio mode, vector"
vector 127 HelloTest.mote[63].wlan[0].radio radioChannel:vector ETV
attr interpolationmode sample-hold
attr source radioChannelChanged
attr title "Radio channel, vector"
vector 128 HelloTest.mote[64].wlan[0].radio radioMode:vector ETV
attr interpolationmode sample-hold
attr source radioModeChanged
attr title "Radio mode, vector"
vector 129 HelloTest.mote[64].wlan[0].radio radioChannel:vector ETV
attr interpolationmode sample-hold
attr source radioChannelChanged
attr title "Radio channel, vector"
vector 130 HelloTest.mote[65].wlan[0].radio radioMode:vector ETV
attr interpolationmode sample-hold
attr source radioModeChanged
attr title "Radio mode, vector"
vector 131 HelloTest.mote[65].wlan[0].radio radioChannel:vector ETV
attr interpolationmode sample-hold
attr source radioChannelChanged
attr title "Radio channel, vector"
vector 132 HelloTest.mote[66].wlan[0].radio radioMode:vector ETV
attr interpolationmode sample-hold
attr source radioModeChanged
attr title "Radio mode, vector"
vector 133 HelloTest.mote[66].wlan[0].radio radioChannel:vector ETV
attr interpolationmode sample-hold
attr source radioChannelChanged
attr title "Radio channel, vector"
vector 134 HelloTest.mote[67].wlan[0].radio radioMode:vector ETV
attr interpolationmode sample-hold
attr source radioModeChanged
attr title "Radio mode, vector"
vector 135 HelloTest.mote[67].wlan[0].radio radioChannel:vector ETV
attr interpolationmode sample-hold
attr source radioChannelChanged
attr title "Radio channel, vector"
vector 136 HelloTest.mote[68].wlan[0].radio radioMode:vector ETV
attr interpolationmode sample-hold
attr source radioModeChanged
attr title "Radio mode, vector"
vector 137 HelloTest.mote[68].wlan[0].radio radioChannel:vector ETV
attr interpolationmode sample-hold
attr source radioChannelChanged
attr title "Radio channel, vector"
vector 138 HelloTest.mote[69].wlan[0].radio radioMode:vector ETV
attr interpolationmode sample-hold
attr source radioModeChanged
attr title "Radio mode, vector"
vector 139 HelloTest.mote[69].wlan[0].radio radioChannel:vector ETV
attr interpolationmode sample-hold
attr source radioChannelChanged
attr title "Radio channel, vector"
vector 140 HelloTest.mote[70].wlan[0].radio radioMode:vector ETV
attr interpolationmode sample-hold
attr source radioModeChanged
attr title "Radio mode, vector"
vector 141 HelloTest.mote[70].wlan[0].radio radioChannel:vector ETV
attr interpolationmode sample-hold
attr source radioChannelChanged
attr title "Radio channel, vector"
vector 142 HelloTest.mote[71].wlan[0].radio radioMode:vector ETV
attr interpolationmode sample-hold
attr source radioModeChanged
attr title "Radio mode, vector"
vector 143 HelloTest.mote[71].wlan[0].radio radioChannel:vector ETV
attr interpolationmode sample-hold
attr source radioChannelChanged
attr title "Radio channel, vector"
vector 144 HelloTest.mote[72].wlan[0].radio radioMode:vector ETV
attr interpolationmode sample-hold
attr source radioModeChanged
attr title "Radio mode, vector"
vector 145 HelloTest.mote[72].wlan[0].radio radioChannel:vector ETV
attr interpolationmode sample-hold
attr source radioChannelChanged
attr title "Radio channel, vector"
vector 146 HelloTest.mote[73].wlan[0].radio radioMode:vector ETV
attr interpolationmode sample-hold
attr source radioModeChanged
attr title "Radio mode, vector"
vector 147 HelloTest.mote[73].wlan[0].radio radioChannel:vector ETV
attr interpolationmode sample-hold
attr source radioChannelChanged
attr title "Radio channel, vector"
vector 148 HelloTest.mote[74].wlan[0].radio radioMode:vector ETV
attr interpolationmode sample-hold
attr source radioModeChanged
attr title "Radio mode, vector"
vector 149 HelloTest.mote[74].wlan[0].radio radioChannel:vector ETV
attr interpolationmode sample-hold
attr source radioChannelChanged
attr title "Radio channel, vector"
vector 150 HelloTest.mote[75].wlan[0].radio radioMode:vector ETV
attr interpolationmode sample-hold
attr source radioModeChanged
attr title "Radio mode, vector"
vector 151 HelloTest.mote[75].wlan[0].radio radioChannel:vector ETV
attr interpolationmode sample-hold
attr source radioChannelChanged
attr title "Radio channel, vector"
vector 152 HelloTest.mote[76].wlan[0].radio radioMode:vector ETV
attr interpolationmode sample-hold
attr source radioModeChanged
attr title "Radio mode, vector"
vector 153 HelloTest.mote[76].wlan[0].radio radioChannel:vector ETV
attr interpolationmode sample-hold
attr source radioChannelChanged
attr title "Radio channel, vector"
vector 154 HelloTest.mote[77].wlan[0].radio radioMode:vector ETV
attr interpolationmode sample-hold
attr source radioModeChanged
attr title "Radio mode, vector"
vector 155 HelloTest.mote[77].wlan[0].radio radioChannel:vector ETV
attr interpolationmode sample-hold
attr source radioChannelChanged
attr title "Radio channel, vector"
vector 156 HelloTest.mote[78].wlan[0].radio radioMode:vector ETV
attr interpolationmode sample-hold
attr source radioModeChanged
attr title "Radio mode, vector"
vector 157 HelloTest.mote[78].wlan[0].radio radioChannel:vector ETV
attr interpolationmode sample-hold
attr source radioChannelChanged
attr title "Radio channel, vector"
vector 158 HelloTest.mote[79].wlan[0].radio radioMode:vector ETV
attr interpolationmode sample-hold
attr source radioModeChanged
attr title "Radio mode, vector"
vector 159 HelloTest.mote[79].wlan[0].radio radioChannel:vector ETV
attr interpolationmode sample-hold
attr source radioChannelChanged
attr title "Radio channel, vector"
vector 160 HelloTest.mote[80].wlan[0].radio radioMode:vector ETV
attr interpolationmode sample-hold
attr source radioModeChanged
attr title "Radio mode, vector"
vector 161 HelloTest.mote[80].wlan[0].radio radioChannel:vector ETV
attr interpolationmode sample-hold
attr source radioChannelChanged
attr title "Radio channel, vector"
vector 162 HelloTest.mote[81].wlan[0].radio radioMode:vector ETV
attr interpolationmode sample-hold
attr source radioModeChanged
attr title "Radio mode, vector"
vector 163 HelloTest.mote[81].wlan[0].radio radioChannel:vector ETV
attr interpolationmode sample-hold
attr source radioChannelChanged
attr title "Radio channel, vector"
vector 164 HelloTest.mote[82].wlan[0].radio radioMode:vector ETV
attr interpolationmode sample-hold
attr source radioModeChanged
attr title "Radio mode, vector"
vector 165 HelloTest.mote[82].wlan[0].radio radioChannel:vector ETV
attr interpolationmode sample-hold
attr source radioChannelChanged
attr title "Radio channel, vector"
vector 166 HelloTest.mote[83].wlan[0].radio radioMode:vector ETV
attr interpolationmode sample-hold
attr source radioModeChanged
attr title "Radio mode, vector"
vector 167 HelloTest.mote[83].wlan[0].radio radioChannel:vector ETV
attr interpolationmode sample-hold
attr source radioChannelChanged
attr title "Radio channel, vector"
vector 168 HelloTest.mote[84].wlan[0].radio radioMode:vector ETV
attr interpolationmode sample-hold
attr source radioModeChanged
attr title "Radio mode, vector"
vector 169 HelloTest.mote[84].wlan[0].radio radioChannel:vector ETV
attr interpolationmode sample-hold
attr source radioChannelChanged
attr title "Radio channel, vector"
vector 170 HelloTest.mote[85].wlan[0].radio radioMode:vector ETV
attr interpolationmode sample-hold
attr source radioModeChanged
attr title "Radio mode, vector"
vector 171 HelloTest.mote[85].wlan[0].radio radioChannel:vector ETV
attr interpolationmode sample-hold
attr source radioChannelChanged
attr title "Radio channel, vector"
vector 172 HelloTest.mote[86].wlan[0].radio radioMode:vector ETV
attr interpolationmode sample-hold
attr source radioModeChanged
attr title "Radio mode, vector"
vector 173 HelloTest.mote[86].wlan[0].radio radioChannel:vector ETV
attr interpolationmode sample-hold
attr source radioChannelChanged
attr title "Radio channel, vector"
vector 174 HelloTest.mote[87].wlan[0].radio radioMode:vector ETV
attr interpolationmode sample-hold
attr source radioModeChanged
attr title "Radio mode, vector"
vector 175 HelloTest.mote[87].wlan[0].radio radioChannel:vector ETV
attr interpolationmode sample-hold
attr source radioChannelChanged
attr title "Radio channel, vector"
vector 176 HelloTest.mote[88].wlan[0].radio radioMode:vector ETV
attr interpolationmode sample-hold
attr source radioModeChanged
attr title "Radio mode, vector"
vector 177 HelloTest.mote[88].wlan[0].radio radioChannel:vector ETV
attr interpolationmode sample-hold
attr source radioChannelChanged
attr title "Radio channel, vector"
vector 178 HelloTest.mote[89].wlan[0].radio radioMode:vector ETV
attr interpolationmode sample-hold
attr source radioModeChanged
attr title "Radio mode, vector"
vector 179 HelloTest.mote[89].wlan[0].radio radioChannel:vector ETV
attr interpolationmode sample-hold
attr source radioChannelChanged
attr title "Radio channel, vector"
vector 180 HelloTest.mote[90].wlan[0].radio radioMode:vector ETV
attr interpolationmode sample-hold
attr source radioModeChanged
attr title "Radio mode, vector"
vector 181 HelloTest.mote[90].wlan[0].radio radioChannel:vector ETV
attr interpolationmode sample-hold
attr source radioChannelChanged
attr title "Radio channel, vector"
vector 182 HelloTest.mote[91].wlan[0].radio radioMode:vector ETV
attr interpolationmode sample-hold
attr source radioModeChanged
attr title "Radio mode, vector"
vector 183 HelloTest.mote[91].wlan[0].radio radioChannel:vector ETV
attr interpolationmode sample-hold
attr source radioChannelChanged
attr title "Radio channel, vector"
vector 184 HelloTest.mote[92].wlan[0].radio radioMode:vector ETV
attr interpolationmode sample-hold
attr source radioModeChanged
attr title "Radio mode, vector"
vector 185 HelloTest.mote[92].wlan[0].radio radioChannel:vector ETV
attr interpolationmode sample-hold
attr source radioChannelChanged
attr title "Radio channel, vector"
vector 186 HelloTest.mote[93].wlan[0].radio radioMode:vector ETV
attr interpolationmode sample-hold
attr source radioModeChanged
attr title "Radio mode, vector"
vector 187 HelloTest.mote[93].wlan[0].radio radioChannel:vector ETV
attr interpolationmode sample-hold
attr source radioChannelChanged
attr title "Radio channel, vector"
vector 188 HelloTest.mote[94].wlan[0].radio radioMode:vector ETV
attr interpolationmode sample-hold
attr source radioModeChanged
attr title "Radio mode, vector"
vector 189 HelloTest.mote[94].wlan[0].radio radioChannel:vector ETV
attr interpolationmode sample-hold
attr source radioChannelChanged
attr title "Radio channel, vector"
vector 190 HelloTest.mote[95].wlan[0].radio radioMode:vector ETV
attr interpolationmode sample-hold
attr source radioModeChanged
attr title "Radio mode, vector"
vector 191 HelloTest.mote[95].wlan[0].radio radioChannel:vector ETV
attr interpolationmode sample-hold
attr source radioChannelChanged
attr title "Radio channel, vector"
vector 192 HelloTest.mote[96].wlan[0].radio radioMode:vector ETV
attr interpolationmode sample-hold
attr source radioModeChanged
attr title "Radio mode, vector"
vector 193 HelloTest.mote[96].wlan[0].radio radioChannel:vector ETV
attr interpolationmode sample-hold
attr source radioChannelChanged
attr title "Radio channel, vector"
vector 194 HelloTest.mote[97].wlan[0].radio radioMode:vector ETV
attr interpolationmode sample-hold
attr source radioModeChanged
attr title "Radio mode, vector"
vector 195 HelloTest.mote[97].wlan[0].radio radioChannel:vector ETV
attr interpolationmode sample-hold
attr source radioChannelChanged
attr title "Radio channel, vector"
vector 196 HelloTest.mote[98].wlan[0].radio radioMode:vector ETV
attr interpolationmode sample-hold
attr source radioModeChanged
attr title "Radio mode, vector"
vector 197 HelloTest.mote[98].wlan[0].radio radioChannel:vector ETV
attr interpolationmode sample-hold
attr source radioChannelChanged
attr title "Radio channel, vector"
vector 198 HelloTest.mote[99].wlan[0].radio radioMode:vector ETV
attr interpolationmode sample-hold
attr source radioModeChanged
attr title "Radio mode, vector"
vector 199 HelloTest.mote[99].wlan[0].radio radioChannel:vector ETV
attr interpolationmode sample-hold
attr source radioChannelChanged
attr title "Radio channel, vector"
vector 200 HelloTest.mote[0].wlan[0].radio receptionState:vector ETV
attr interpolationmode sample-hold
attr source receptionStateChanged
attr title "Radio reception state, vector"
vector 201 HelloTest.mote[1].wlan[0].radio receptionState:vector ETV
attr interpolationmode sample-hold
attr source receptionStateChanged
attr title "Radio reception state, vector"
vector 202 HelloTest.mote[2].wlan[0].radio receptionState:vector ETV
attr interpolationmode sample-hold
attr source receptionStateChanged
attr title "Radio reception state, vector"
vector 203 HelloTest.mote[3].wlan[0].radio receptionState:vector ETV
attr interpolationmode sample-hold
attr source receptionStateChanged
attr title "Radio reception state, vector"
vector 204 HelloTest.mote[4].wlan[0].radio receptionState:vector ETV
attr interpolationmode sample-hold
attr source receptionStateChanged
attr title "Radio reception state, vector"
vector 205 HelloTest.mote[5].wlan[0].radio receptionState:vector ETV
attr interpolationmode sample-hold
attr source receptionStateChanged
attr title "Radio reception state, vector"
vector 206 HelloTest.mote[6].wlan[0].radio receptionState:vector ETV
attr interpolationmode sample-hold
attr source receptionStateChanged
attr title "Radio reception state, vector"
vector 207 HelloTest.mote[7].wlan[0].radio receptionState:vector ETV
attr interpolationmode sample-hold
attr source receptionStateChanged
attr title "Radio reception state, vector"
vector 208 HelloTest.mote[8].wlan[0].radio receptionState:vector ETV
attr interpolationmode sample-hold
attr source receptionStateChanged
attr title "Radio reception state, vector"
vector 209 HelloTest.mote[9].wlan[0].radio receptionState:vector ETV
attr interpolationmode sample-hold
attr source receptionStateChanged
attr title "Radio reception state, vector"
vector 210 HelloTest.mote[10].wlan[0].radio receptionState:vector ETV
attr interpolationmode sample-hold
attr source receptionStateChanged
attr title "Radio reception state, vector"
vector 211 HelloTest.mote[11].wlan[0].radio receptionState:vector ETV
attr interpolationmode sample-hold
attr source receptionStateChanged
attr title "Radio reception state, vector"
vector 212 HelloTest.mote[12].wlan[0].radio receptionState:vector ETV
attr interpolationmode sample-hold
attr source receptionStateChanged
attr title "Radio reception state, vector"
vector 213 HelloTest.mote[13].wlan[0].radio receptionState:vector ETV
attr interpolationmode sample-hold
attr source receptionStateChanged
attr title "Radio reception state, vector"
vector 214 HelloTest.mote[14].wlan[0].radio receptionState:vector ETV
attr interpolationmode sample-hold
attr source receptionStateChanged
attr title "Radio reception state, vector"
vector 215 HelloTest.mote[15].wlan[0].radio receptionState:vector ETV
attr interpolationmode sample-hold
attr source receptionStateChanged
attr title "Radio reception state, vector"
vector 216 HelloTest.mote[16].wlan[0].radio receptionState:vector ETV
attr interpolationmode sample-hold
attr source receptionStateChanged
attr title "Radio reception state, vector"
vector 217 HelloTest.mote[17].wlan[0].radio receptionState:vector ETV
attr interpolationmode sample-hold
attr source receptionStateChanged
attr title "Radio reception state, vector"
vector 218 HelloTest.mote[18].wlan[0].radio receptionState:vector ETV
attr interpolationmode sample-hold
attr source receptionStateChanged
attr title "Radio reception state, vector"
vector 219 HelloTest.mote[19].wlan[0].radio receptionState:vector ETV
attr interpolationmode sample-hold
attr source receptionStateChanged
attr title "Radio reception state, vector"
vector 220 HelloTest.mote[20].wlan[0].radio receptionState:vector ETV
attr interpolationmode sample-hold
attr source receptionStateChanged
attr title "Radio reception state, vector"
vector 221 HelloTest.mote[21].wlan[0].radio receptionState:vector ETV
attr interpolationmode sample-hold
attr source receptionStateChanged
attr title "Radio reception state, vector"
vector 222 HelloTest.mote[22].wlan[0].radio receptionState:vector ETV
attr interpolationmode sample-hold
attr source receptionStateChanged
attr title "Radio reception state, vector"
vector 223 HelloTest.mote[23].wlan[0].radio receptionState:vector ETV
attr interpolationmode sample-hold
attr source receptionStateChanged
attr title "Radio reception state, vector"
vector 224 HelloTest.mote[24].wlan[0].radio receptionState:vector ETV
attr interpolationmode sample-hold
attr source receptionStateChanged
attr title "Radio reception state, vector"
vector 225 HelloTest.mote[25].wlan[0].radio receptionState:vector ETV
attr interpolationmode sample-hold
attr source receptionStateChanged
attr title "Radio reception state, vector"
vector 226 HelloTest.mote[26].wlan[0].radio receptionState:vector ETV
attr interpolationmode sample-hold
attr source receptionStateChanged
attr title "Radio reception state, vector"
vector 227 HelloTest.mote[27].wlan[0].radio receptionState:vector ETV
attr interpolationmode sample-hold
attr source receptionStateChanged
attr title "Radio reception state, vector"
vector 228 HelloTest.mote[28].wlan[0].radio receptionState:vector ETV
attr interpolationmode sample-hold
attr source receptionStateChanged
attr title "Radio reception state, vector"
vector 229 HelloTest.mote[29].wlan[0].radio receptionState:vector ETV
attr interpolationmode sample-hold
attr source receptionStateChanged
attr title "Radio reception state, vector"
vector 230 HelloTest.mote[30].wlan[0].radio receptionState:vector ETV
attr interpolationmode sample-hold
attr source receptionStateChanged
attr title "Radio reception state, vector"
vector 231 HelloTest.mote[31].wlan[0].radio receptionState:vector ETV
attr interpolationmode sample-hold
attr source receptionStateChanged
attr title "Radio reception state, vector"
vector 232 HelloTest.mote[32].wlan[0].radio receptionState:vector ETV
attr interpolationmode sample-hold
attr source receptionStateChanged
attr title "Radio reception state, vector"
vector 233 HelloTest.mote[33].wlan[0].radio receptionState:vector ETV
attr interpolationmode sample-hold
attr source receptionStateChanged
attr title "Radio reception state, vector"
vector 234 HelloTest.mote[34].wlan[0].radio receptionState:vector ETV
attr interpolationmode sample-hold
attr source receptionStateChanged
attr title "Radio reception state, vector"
vector 235 HelloTest.mote[35].wlan[0].radio receptionState:vector ETV
attr interpolationmode sample-hold
attr source receptionStateChanged
attr title "Radio reception state, vector"
vector 236 HelloTest.mote[36].wlan[0].radio receptionState:vector ETV
attr interpolationmode sample-hold
attr source receptionStateChanged
attr title "Radio reception state, vector"
vector 237 HelloTest.mote[37].wlan[0].radio receptionState:vector ETV
attr interpolationmode sample-hold
attr source receptionStateChanged
attr title "Radio reception state, vector"
vector 238 HelloTest.mote[38].wlan[0].radio receptionState:vector ETV
attr interpolationmode sample-hold
attr source receptionStateChanged
attr title "Radio reception state, vector"
vector 239 HelloTest.mote[39].wlan[0].radio receptionState:vector ETV
attr interpolationmode sample-hold
attr source receptionStateChanged
attr title "Radio reception state, vector"
vector 240 HelloTest.mote[40].wlan[0].radio receptionState:vector ETV
attr interpolationmode sample-hold
attr source receptionStateChanged
attr title "Radio reception state, vector"
vector 241 HelloTest.mote[41].wlan[0].radio receptionState:vector ETV
attr interpolationmode sample-hold
attr source receptionStateChanged
attr title "Radio reception state, vector"
vector 242 HelloTest.mote[42].wlan[0].radio receptionState:vector ETV
attr interpolationmode sample-hold
attr source receptionStateChanged
attr title "Radio reception state, vector"
vector 243 HelloTest.mote[43].wlan[0].radio receptionState:vector ETV
attr interpolationmode sample-hold
attr source receptionStateChanged
attr title "Radio reception state, vector"
vector 244 HelloTest.mote[44].wlan[0].radio receptionState:vector ETV
attr interpolationmode sample-hold
attr source receptionStateChanged
attr title "Radio reception state, vector"
vector 245 HelloTest.mote[45].wlan[0].radio receptionState:vector ETV
attr interpolationmode sample-hold
attr source receptionStateChanged
attr title "Radio reception state, vector"
vector 246 HelloTest.mote[46].wlan[0].radio receptionState:vector ETV
attr interpolationmode sample-hold
attr source receptionStateChanged
attr title "Radio reception state, vector"
vector 247 HelloTest.mote[47].wlan[0].radio receptionState:vector ETV
attr interpolationmode sample-hold
attr source receptionStateChanged
attr title "Radio reception state, vector"
vector 248 HelloTest.mote[48].wlan[0].radio receptionState:vector ETV
attr interpolationmode sample-hold
attr source receptionStateChanged
attr title "Radio reception state, vector"
vector 249 HelloTest.mote[49].wlan[0].radio receptionState:vector ETV
attr interpolationmode sample-hold
attr source receptionStateChanged
attr title "Radio reception state, vector"
vector 250 HelloTest.mote[50].wlan[0].radio receptionState:vector ETV
attr interpolationmode sample-hold
attr source receptionStateChanged
attr title "Radio reception state, vector"
vector 251 HelloTest.mote[51].wlan[0].radio receptionState:vector ETV
attr interpolationmode sample-hold
attr source receptionStateChanged
attr title "Radio reception state, vector"
vector 252 HelloTest.mote[52].wlan[0].radio receptionState:vector ETV
attr interpolationmode sample-hold
attr source receptionStateChanged
attr title "Radio reception state, vector"
vector 253 HelloTest.mote[53].wlan[0].radio receptionState:vector ETV
attr interpolationmode sample-hold
attr source receptionStateChanged
attr title "Radio reception state, vector"
vector 254 HelloTest.mote[54].wlan[0].radio receptionState:vector ETV
attr interpolationmode sample-hold
attr source receptionStateChanged
attr title "Radio reception state, vector"
vector 255 HelloTest.mote[55].wlan[0].radio receptionState:vector ETV
attr interpolationmode sample-hold
attr source receptionStateChanged
attr title "Radio reception state, vector"
vector 256 HelloTest.mote[56].wlan[0].radio receptionState:vector ETV
attr interpolationmode sample-hold
attr source receptionStateChanged
attr title "Radio reception state, vector"
vector 257 HelloTest.mote[57].wlan[0].radio receptionState:vector ETV
attr interpolationmode sample-hold
attr source receptionStateChanged
attr title "Radio reception state, vector"
vector 258 HelloTest.mote[58].wlan[0].radio receptionState:vector ETV
attr interpolationmode sample-hold
attr source receptionStateChanged
attr title "Radio reception state, vector"
vector 259 HelloTest.mote[59].wlan[0].radio receptionState:vector ETV
attr interpolationmode sample-hold
attr source receptionStateChanged
attr title "Radio reception state, vector"
vector 260 HelloTest.mote[60].wlan[0].radio receptionState:vector ETV
attr interpolationmode sample-hold
attr source receptionStateChanged
attr title "Radio reception state, vector"
vector 261 HelloTest.mote[61].wlan[0].radio receptionState:vector ETV
attr interpolationmode sample-hold
attr source receptionStateChanged
attr title "Radio reception state, vector"
vector 262 HelloTest.mote[62].wlan[0].radio receptionState:vector ETV
attr interpolationmode sample-hold
attr source receptionStateChanged
attr title "Radio reception state, vector"
vector 263 HelloTest.mote[63].wlan[0].radio receptionState:vector ETV
attr interpolationmode sample-hold
attr source receptionStateChanged
attr title "Radio reception state, vector"
vector 264 HelloTest.mote[64].wlan[0].radio receptionState:vector ETV
attr interpolationmode sample-hold
attr source receptionStateChanged
attr title "Radio reception state, vector"
vector 265 HelloTest.mote[65].wlan[0].radio receptionState:vector ETV
attr interpolationmode sample-hold
attr source receptionStateChanged
attr title "Radio reception state, vector"
vector 266 HelloTest.mote[66].wlan[0].radio receptionState:vector ETV
attr interpolationmode sample-hold
attr source receptionStateChanged
attr title "Radio reception state, vector"
vector 267 HelloTest.mote[67].wlan[0].radio receptionState:vector ETV
attr interpolationmode sample-hold
attr source receptionStateChanged
attr title "Radio reception state, vector"
vector 268 HelloTest.mote[68].wlan[0].radio receptionState:vector ETV
attr interpolationmode sample-hold
attr source receptionStateChanged
attr title "Radio reception state, vector"
vector 269 HelloTest.mote[69].wlan[0].radio receptionState:vector ETV
attr interpolationmode sample-hold
attr source receptionStateChanged
attr title "Radio reception state, vector"
vector 270 HelloTest.mote[70].wlan[0].radio receptionState:vector ETV
attr interpolationmode sample-hold
attr source receptionStateChanged
attr title "Radio reception state, vector"
vector 271 HelloTest.mote[71].wlan[0].radio receptionState:vector ETV
attr interpolationmode sample-hold
attr source receptionStateChanged
attr title "Radio reception state, vector"
vector 272 HelloTest.mote[72].wlan[0].radio receptionState:vector ETV
attr interpolationmode sample-hold
attr source receptionStateChanged
attr title "Radio reception state, vector"
vector 273 HelloTest.mote[73].wlan[0].radio receptionState:vector ETV
attr interpolationmode sample-hold
attr source receptionStateChanged
attr title "Radio reception state, vector"
vector 274 HelloTest.mote[74].wlan[0].radio receptionState:vector ETV
attr interpolationmode sample-hold
attr source receptionStateChanged
attr title "Radio reception state, vector"
vector 275 HelloTest.mote[75].wlan[0].radio receptionState:vector ETV
attr interpolationmode sample-hold
attr source receptionStateChanged
attr title "Radio reception state, vector"
vector 276 HelloTest.mote[76].wlan[0].radio receptionState:vector ETV
attr interpolationmode sample-hold
attr source receptionStateChanged
attr title "Radio reception state, vector"
vector 277 HelloTest.mote[77].wlan[0].radio receptionState:vector ETV
attr interpolationmode sample-hold
attr source receptionStateChanged
attr title "Radio reception state, vector"
vector 278 HelloTest.mote[78].wlan[0].radio receptionState:vector ETV
attr interpolationmode sample-hold
attr source receptionStateChanged
attr title "Radio reception state, vector"
vector 279 HelloTest.mote[79].wlan[0].radio receptionState:vector ETV
attr interpolationmode sample-hold
attr source receptionStateChanged
attr title "Radio reception state, vector"
vector 280 HelloTest.mote[80].wlan[0].radio receptionState:vector ETV
attr interpolationmode sample-hold
attr source receptionStateChanged
attr title "Radio reception state, vector"
vector 281 HelloTest.mote[81].wlan[0].radio receptionState:vector ETV
attr interpolationmode sample-hold
attr source receptionStateChanged
attr title "Radio reception state, vector"
vector 282 HelloTest.mote[82].wlan[0].radio receptionState:vector ETV
attr interpolationmode sample-hold
attr source receptionStateChanged
attr title "Radio reception state, vector"
vector 283 HelloTest.mote[83].wlan[0].radio receptionState:vector ETV
attr interpolationmode sample-hold
attr source receptionStateChanged
attr title "Radio reception state, vector"
vector 284 HelloTest.mote[84].wlan[0].radio receptionState:vector ETV
attr interpolationmode sample-hold
attr source receptionStateChanged
attr title "Radio reception state, vector"
vector 285 HelloTest.mote[85].wlan[0].radio receptionState:vector ETV
attr interpolationmode sample-hold
attr source receptionStateChanged
attr title "Radio reception state, vector"
vector 286 HelloTest.mote[86].wlan[0].radio receptionState:vector ETV
attr interpolationmode sample-hold
attr source receptionStateChanged
attr title "Radio reception state, vector"
vector 287 HelloTest.mote[87].wlan[0].radio receptionState:vector ETV
attr interpolationmode sample-hold
attr source receptionStateChanged
attr title "Radio reception state, vector"
vector 288 HelloTest.mote[88].wlan[0].radio receptionState:vector ETV
attr interpolationmode sample-hold
attr source receptionStateChanged
attr title "Radio reception state, vector"
vector 289 HelloTest.mote[89].wlan[0].radio receptionState:vector ETV
attr interpolationmode sample-hold
attr source receptionStateChanged
attr title "Radio reception state, vector"
vector 290 HelloTest.mote[90].wlan[0].radio receptionState:vector ETV
attr interpolationmode sample-hold
attr source receptionStateChanged
attr title "Radio reception state, vector"
vector 291 HelloTest.mote[91].wlan[0].radio receptionState:vector ETV
attr interpolationmode sample-hold
attr source receptionStateChanged
attr title "Radio reception state, vector"
vector 292 HelloTest.mote[92].wlan[0].radio receptionState:vector ETV
attr interpolationmode sample-hold
attr source receptionStateChanged
attr title "Radio reception state, vector"
vector 293 HelloTest.mote[93].wlan[0].radio receptionState:vector ETV
attr interpolationmode sample-hold
attr source receptionStateChanged
attr title "Radio reception state, vector"
vector 294 HelloTest.mote[94].wlan[0].radio receptionState:vector ETV
attr interpolationmode sample-hold
attr source receptionStateChanged
attr title "Radio reception state, vector"
vector 295 HelloTest.mote[95].wlan[0].radio receptionState:vector ETV
attr interpolationmode sample-hold
attr source receptionStateChanged
attr title "Radio reception state, vector"
vector 296 HelloTest.mote[96].wlan[0].radio receptionState:vector ETV
attr interpolationmode sample-hold
attr source receptionStateChanged
attr title "Radio reception state, vector"
vector 297 HelloTest.mote[97].wlan[0].radio receptionState:vector ETV
attr interpolationmode sample-hold
attr source receptionStateChanged
attr title "Radio reception state, vector"
vector 298 HelloTest.mote[98].wlan[0].radio receptionState:vector ETV
attr interpolationmode sample-hold
attr source receptionStateChanged
attr title "Radio reception state, vector"
vector 299 HelloTest.mote[99].wlan[0].radio receptionState:vector ETV
attr interpolationmode sample-hold
attr source receptionStateChanged
attr title "Radio reception state, vector"
vector 300 HelloTest.mote[0].wlan[0].mac.dcf.recoveryProcedure contentionWindowChanged:vector ETV
attr interpolationmode sample-hold
attr title "contention window, vector"
vector 301 HelloTest.mote[1].wlan[0].mac.dcf.recoveryProcedure contentionWindowChanged:vector ETV
attr interpolationmode sample-hold
attr title "contention window, vector"
vector 302 HelloTest.mote[2].wlan[0].mac.dcf.recoveryProcedure contentionWindowChanged:vector ETV
attr interpolationmode sample-hold
attr title "contention window, vector"
vector 303 HelloTest.mote[3].wlan[0].mac.dcf.recoveryProcedure contentionWindowChanged:vector ETV
attr interpolationmode sample-hold
attr title "contention window, vector"
vector 304 HelloTest.mote[4].wlan[0].mac.dcf.recoveryProcedure contentionWindowChanged:vector ETV
attr interpolationmode sample-hold
attr title "contention window, vector"
vector 305 HelloTest.mote[5].wlan[0].mac.dcf.recoveryProcedure contentionWindowChanged:vector ETV
attr interpolationmode sample-hold
attr title "contention window, vector"
vector 306 HelloTest.mote[6].wlan[0].mac.dcf.recoveryProcedure contentionWindowChanged:vector ETV
attr interpolationmode sample-hold
attr title "contention window, vector"
vector 307 HelloTest.mote[7].wlan[0].mac.dcf.recoveryProcedure contentionWindowChanged:vector ETV
attr interpolationmode sample-hold
attr title "contention window, vector"
vector 308 HelloTest.mote[8].wlan[0].mac.dcf.recoveryProcedure contentionWindowChanged:vector ETV
attr interpolationmode sample-hold
attr title "contention window, vector"
vector 309 HelloTest.mote[9].wlan[0].mac.dcf.recoveryProcedure contentionWindowChanged:vector ETV
attr interpolationmode sample-hold
attr title "contention window, vector"
vector 310 HelloTest.mote[10].wlan[0].mac.dcf.recoveryProcedure contentionWindowChanged:vector ETV
attr interpolationmode sample-hold
attr title "contention window, vector"
vector 311 HelloTest.mote[11].wlan[0].mac.dcf.recoveryProcedure contentionWindowChanged:vector ETV
attr interpolationmode sample-hold
attr title "contention window, vector"
vector 312 HelloTest.mote[12].wlan[0].mac.dcf.recoveryProcedure contentionWindowChanged:vector ETV
attr interpolationmode sample-hold
attr title "contention window, vector"
vector 313 HelloTest.mote[13].wlan[0].mac.dcf.recoveryProcedure contentionWindowChanged:vector ETV
attr interpolationmode sample-hold
attr title "contention window, vector"
vector 314 HelloTest.mote[14].wlan[0].mac.dcf.recoveryProcedure contentionWindowChanged:vector ETV
attr interpolationmode sample-hold
attr title "contention window, vector"
vector 315 HelloTest.mote[15].wlan[0].mac.dcf.recoveryProcedure contentionWindowChanged:vector ETV
attr interpolationmode sample-hold
attr title "contention window, vector"
vector 316 HelloTest.mote[16].wlan[0].mac.dcf.recoveryProcedure contentionWindowChanged:vector ETV
attr interpolationmode sample-hold
attr title "contention window, vector"
vector 317 HelloTest.mote[17].wlan[0].mac.dcf.recoveryProcedure contentionWindowChanged:vector ETV
attr interpolationmode sample-hold
attr title "contention window, vector"
vector 318 HelloTest.mote[18].wlan[0].mac.dcf.recoveryProcedure contentionWindowChanged:vector ETV
attr interpolationmode sample-hold
attr title "contention window, vector"
vector 319 HelloTest.mote[19].wlan[0].mac.dcf.recoveryProcedure contentionWindowChanged:vector ETV
attr interpolationmode sample-hold
attr title "contention window, vector"
vector 320 HelloTest.mote[20].wlan[0].mac.dcf.recoveryProcedure contentionWindowChanged:vector ETV
attr interpolationmode sample-hold
attr title "contention window, vector"
vector 321 HelloTest.mote[21].wlan[0].mac.dcf.recoveryProcedure contentionWindowChanged:vector ETV
attr interpolationmode sample-hold
attr title "contention window, vector"
vector 322 HelloTest.mote[22].wlan[0].mac.dcf.recoveryProcedure contentionWindowChanged:vector ETV
attr interpolationmode sample-hold
attr title "contention window, vector"
vector 323 HelloTest.mote[23].wlan[0].mac.dcf.recoveryProcedure contentionWindowChanged:vector ETV
attr interpolationmode sample-hold
attr title "contention window, vector"
vector 324 HelloTest.mote[24].wlan[0].mac.dcf.recoveryProcedure contentionWindowChanged:vector ETV
attr interpolationmode sample-hold
attr title "contention window, vector"
vector 325 HelloTest.mote[25].wlan[0].mac.dcf.recoveryProcedure contentionWindowChanged:vector ETV
attr interpolationmode sample-hold
attr title "contention window, vector"
vector 326 HelloTest.mote[26].wlan[0].mac.dcf.recoveryProcedure contentionWindowChanged:vector ETV
attr interpolationmode sample-hold
attr title "contention window, vector"
vector 327 HelloTest.mote[27].wlan[0].mac.dcf.recoveryProcedure contentionWindowChanged:vector ETV
attr interpolationmode sample-hold
attr title "contention window, vector"
vector 328 HelloTest.mote[28].wlan[0].mac.dcf.recoveryProcedure contentionWindowChanged:vector ETV
attr interpolationmode sample-hold
attr title "contention window, vector"
vector 329 HelloTest.mote[29].wlan[0].mac.dcf.recoveryProcedure contentionWindowChanged:vector ETV
attr interpolationmode sample-hold
attr title "contention window, vector"
vector 330 HelloTest.mote[30].wlan[0].mac.dcf.recoveryProcedure contentionWindowChanged:vector ETV
attr interpolationmode sample-hold
attr title "contention window, vector"
vector 331 HelloTest.mote[31].wlan[0].mac.dcf.recoveryProcedure contentionWindowChanged:vector ETV
attr interpolationmode sample-hold
attr title "contention window, vector"
vector 332 HelloTest.mote[32].wlan[0].mac.dcf.recoveryProcedure contentionWindowChanged:vector ETV
attr interpolationmode sample-hold
attr title "contention window, vector"
vector 333 HelloTest.mote[33].wlan[0].mac.dcf.recoveryProcedure contentionWindowChanged:vector ETV
attr interpolationmode sample-hold
attr title "contention window, vector"
vector 334 HelloTest.mote[34].wlan[0].mac.dcf.recoveryProcedure contentionWindowChanged:vector ETV
attr interpolationmode sample-hold
attr title "contention window, vector"
vector 335 HelloTest.mote[35].wlan[0].mac.dcf.recoveryProcedure contentionWindowChanged:vector ETV
attr interpolationmode sample-hold
attr title "contention window, vector"
vector 336 HelloTest.mote[36].wlan[0].mac.dcf.recoveryProcedure contentionWindowChanged:vector ETV
attr interpolationmode sample-hold
attr title "contention window, vector"
vector 337 HelloTest.mote[37].wlan[0].mac.dcf.recoveryProcedure contentionWindowChanged:vector ETV
attr interpolationmode sample-hold
attr title "contention window, vector"
vector 338 HelloTest.mote[38].wlan[0].mac.dcf.recoveryProcedure contentionWindowChanged:vector ETV
attr interpolationmode sample-hold
attr title "contention window, vector"
vector 339 HelloTest.mote[39].wlan[0].mac.dcf.recoveryProcedure contentionWindowChanged:vector ETV
attr interpolationmode sample-hold
attr title "contention window, vector"
vector 340 HelloTest.mote[40].wlan[0].mac.dcf.recoveryProcedure contentionWindowChanged:vector ETV
attr interpolationmode sample-hold
attr title "contention window, vector"
vector 341 HelloTest.mote[41].wlan[0].mac.dcf.recoveryProcedure contentionWindowChanged:vector ETV
attr interpolationmode sample-hold
attr title "contention window, vector"
vector 342 HelloTest.mote[42].wlan[0].mac.dcf.recoveryProcedure contentionWindowChanged:vector ETV
attr interpolationmode sample-hold
attr title "contention window, vector"
vector 343 HelloTest.mote[43].wlan[0].mac.dcf.recoveryProcedure contentionWindowChanged:vector ETV
attr interpolationmode sample-hold
attr title "contention window, vector"
vector 344 HelloTest.mote[44].wlan[0].mac.dcf.recoveryProcedure contentionWindowChanged:vector ETV
attr interpolationmode sample-hold
attr title "contention window, vector"
vector 345 HelloTest.mote[45].wlan[0].mac.dcf.recoveryProcedure contentionWindowChanged:vector ETV
attr interpolationmode sample-hold
attr title "contention window, vector"
vector 346 HelloTest.mote[46].wlan[0].mac.dcf.recoveryProcedure contentionWindowChanged:vector ETV
attr interpolationmode sample-hold
attr title "contention window, vector"
vector 347 HelloTest.mote[47].wlan[0].mac.dcf.recoveryProcedure contentionWindowChanged:vector ETV
attr interpolationmode sample-hold
attr title "contention window, vector"
vector 348 HelloTest.mote[48].wlan[0].mac.dcf.recoveryProcedure contentionWindowChanged:vector ETV
attr interpolationmode sample-hold
attr title "contention window, vector"
vector 349 HelloTest.mote[49].wlan[0].mac.dcf.recoveryProcedure contentionWindowChanged:vector ETV
attr interpolationmode sample-hold
attr title "contention window, vector"
vector 350 HelloTest.mote[50].wlan[0].mac.dcf.recoveryProcedure contentionWindowChanged:vector ETV
attr interpolationmode sample-hold
attr title "contention window, vector"
vector 351 HelloTest.mote[51].wlan[0].mac.dcf.recoveryProcedure contentionWindowChanged:vector ETV
attr interpolationmode sample-hold
attr title "contention window, vector"
vector 352 HelloTest.mote[52].wlan[0].mac.dcf.recoveryProcedure contentionWindowChanged:vector ETV
attr interpolationmode sample-hold
attr title "contention window, vector"
vector 353 HelloTest.mote[53].wlan[0].mac.dcf.recoveryProcedure contentionWindowChanged:vector ETV
attr interpolationmode sample-hold
attr title "contention window, vector"
vector 354 HelloTest.mote[54].wlan[0].mac.dcf.recoveryProcedure contentionWindowChanged:vector ETV
attr interpolationmode sample-hold
attr title "contention window, vector"
vector 355 HelloTest.mote[55].wlan[0].mac.dcf.recoveryProcedure contentionWindowChanged:vector ETV
attr interpolationmode sample-hold
attr title "contention window, vector"
vector 356 HelloTest.mote[56].wlan[0].mac.dcf.recoveryProcedure contentionWindowChanged:vector ETV
attr interpolationmode sample-hold
attr title "contention window, vector"
vector 357 HelloTest.mote[57].wlan[0].mac.dcf.recoveryProcedure contentionWindowChanged:vector ETV
attr interpolationmode sample-hold
attr title "contention window, vector"
vector 358 HelloTest.mote[58].wlan[0].mac.dcf.recoveryProcedure contentionWindowChanged:vector ETV
attr interpolationmode sample-hold
attr title "contention window, vector"
vector 359 HelloTest.mote[59].wlan[0].mac.dcf.recoveryProcedure contentionWindowChanged:vector ETV
attr interpolationmode sample-hold
attr title "contention window, vector"
vector 360 HelloTest.mote[60].wlan[0].mac.dcf.recoveryProcedure contentionWindowChanged:vector ETV
attr interpolationmode sample-hold
attr title "contention window, vector"
vector 361 HelloTest.mote[61].wlan[0].mac.dcf.recoveryProcedure contentionWindowChanged:vector ETV
attr interpolationmode sample-hold
attr title "contention window, vector"
vector 362 HelloTest.mote[62].wlan[0].mac.dcf.recoveryProcedure contentionWindowChanged:vector ETV
attr interpolationmode sample-hold
attr title "contention window, vector"
vector 363 HelloTest.mote[63].wlan[0].mac.dcf.recoveryProcedure contentionWindowChanged:vector ETV
attr interpolationmode sample-hold
attr title "contention window, vector"
vector 364 HelloTest.mote[64].wlan[0].mac.dcf.recoveryProcedure contentionWindowChanged:vector ETV
attr interpolationmode sample-hold
attr title "contention window, vector"
vector 365 HelloTest.mote[65].wlan[0].mac.dcf.recoveryProcedure contentionWindowChanged:vector ETV
attr interpolationmode sample-hold
attr title "contention window, vector"
vector 366 HelloTest.mote[66].wlan[0].mac.dcf.recoveryProcedure contentionWindowChanged:vector ETV
attr interpolationmode sample-hold
attr title "contention window, vector"
vector 367 HelloTest.mote[67].wlan[0].mac.dcf.recoveryProcedure contentionWindowChanged:vector ETV
attr interpolationmode sample-hold
attr title "contention window, vector"
vector 368 HelloTest.mote[68].wlan[0].mac.dcf.recoveryProcedure contentionWindowChanged:vector ETV
attr interpolationmode sample-hold
attr title "contention window, vector"
vector 369 HelloTest.mote[69].wlan[0].mac.dcf.recoveryProcedure contentionWindowChanged:vector ETV
attr interpolationmode sample-hold
attr title "contention window, vector"
vector 370 HelloTest.mote[70].wlan[0].mac.dcf.recoveryProcedure contentionWindowChanged:vector ETV
attr interpolationmode sample-hold
attr title "contention window, vector"
vector 371 HelloTest.mote[71].wlan[0].mac.dcf.recoveryProcedure contentionWindowChanged:vector ETV
attr interpolationmode sample-hold
attr title "contention window, vector"
vector 372 HelloTest.mote[72].wlan[0].mac.dcf.recoveryProcedure contentionWindowChanged:vector ETV
attr interpolationmode sample-hold
attr title "contention window, vector"
vector 373 HelloTest.mote[73].wlan[0].mac.dcf.recoveryProcedure contentionWindowChanged:vector ETV
attr interpolationmode sample-hold
attr title "contention window, vector"
vector 374 HelloTest.mote[74].wlan[0].mac.dcf.recoveryProcedure contentionWindowChanged:vector ETV
attr interpolationmode sample-hold
attr title "contention window, vector"
vector 375 HelloTest.mote[75].wlan[0].mac.dcf.recoveryProcedure contentionWindowChanged:vector ETV
attr interpolationmode sample-hold
attr title "contention window, vector"
vector 376 HelloTest.mote[76].wlan[0].mac.dcf.recoveryProcedure contentionWindowChanged:vector ETV
attr interpolationmode sample-hold
attr title "contention window, vector"
vector 377 HelloTest.mote[77].wlan[0].mac.dcf.recoveryProcedure contentionWindowChanged:vector ETV
attr interpolationmode sample-hold
attr title "contention window, vector"
vector 378 HelloTest.mote[78].wlan[0].mac.dcf.recoveryProcedure contentionWindowChanged:vector ETV
attr interpolationmode sample-hold
attr title "contention window, vector"
vector 379 HelloTest.mote[79].wlan[0].mac.dcf.recoveryProcedure contentionWindowChanged:vector ETV
attr interpolationmode sample-hold
attr title "contention window, vector"
vector 380 HelloTest.mote[80].wlan[0].mac.dcf.recoveryProcedure contentionWindowChanged:vector ETV
attr interpolationmode sample-hold
attr title "contention window, vector"
vector 381 HelloTest.mote[81].wlan[0].mac.dcf.recoveryProcedure contentionWindowChanged:vector ETV
attr interpolationmode sample-hold
attr title "contention window, vector"
vector 382 HelloTest.mote[82].wlan[0].mac.dcf.recoveryProcedure contentionWindowChanged:vector ETV
attr interpolationmode sample-hold
attr title "contention window, vector"
vector 383 HelloTest.mote[83].wlan[0].mac.dcf.recoveryProcedure contentionWindowChanged:vector ETV
attr interpolationmode sample-hold
attr title "contention window, vector"
vector 384 HelloTest.mote[84].wlan[0].mac.dcf.recoveryProcedure contentionWindowChanged:vector ETV
attr interpolationmode sample-hold
attr title "contention window, vector"
vector 385 HelloTest.mote[85].wlan[0].mac.dcf.recoveryProcedure contentionWindowChanged:vector ETV
attr interpolationmode sample-hold
attr title "contention window, vector"
vector 386 HelloTest.mote[86].wlan[0].mac.dcf.recoveryProcedure contentionWindowChanged:vector ETV
attr interpolationmode sample-hold
attr title "contention window, vector"
vector 387 HelloTest.mote[87].wlan[0].mac.dcf.recoveryProcedure contentionWindowChanged:vector ETV
attr interpolationmode sample-hold
attr title "contention window, vector"
vector 388 HelloTest.mote[88].wlan[0].mac.dcf.recoveryProcedure contentionWindowChanged:vector ETV
attr interpolationmode sample-hold
attr title "contention window, vector"
vector 389 HelloTest.mote[89].wlan[0].mac.dcf.recoveryProcedure contentionWindowChanged:vector ETV
attr interpolationmode sample-hold
attr title "contention window, vector"
vector 390 HelloTest.mote[90].wlan[0].mac.dcf.recoveryProcedure contentionWindowChanged:vector ETV
attr interpolationmode sample-hold
attr title "contention window, vector"
vector 391 HelloTest.mote[91].wlan[0].mac.dcf.recoveryProcedure contentionWindowChanged:vector ETV
attr interpolationmode sample-hold
attr title "contention window, vector"
vector 392 HelloTest.mote[92].wlan[0].mac.dcf.recoveryProcedure contentionWindowChanged:vector ETV
attr interpolationmode sample-hold
attr title "contention window, vector"
vector 393 HelloTest.mote[93].wlan[0].mac.dcf.recoveryProcedure contentionWindowChanged:vector ETV
attr interpolationmode sample-hold
attr title "contention window, vector"
vector 394 HelloTest.mote[94].wlan[0].mac.dcf.recoveryProcedure contentionWindowChanged:vector ETV
attr interpolationmode sample-hold
attr title "contention window, vector"
vector 395 HelloTest.mote[95].wlan[0].mac.dcf.recoveryProcedure contentionWindowChanged:vector ETV
attr interpolationmode sample-hold
attr title "contention window, vector"
vector 396 HelloTest.mote[96].wlan[0].mac.dcf.recoveryProcedure contentionWindowChanged:vector ETV
attr interpolationmode sample-hold
attr title "contention window, vector"
vector 397 HelloTest.mote[97].wlan[0].mac.dcf.recoveryProcedure contentionWindowChanged:vector ETV
attr interpolationmode sample-hold
attr title "contention window, vector"
vector 398 HelloTest.mote[98].wlan[0].mac.dcf.recoveryProcedure contentionWindowChanged:vector ETV
attr interpolationmode sample-hold
attr title "contention window, vector"
vector 399 HelloTest.mote[99].wlan[0].mac.dcf.recoveryProcedure contentionWindowChanged:vector ETV
attr interpolationmode sample-hold
attr title "contention window, vector"
vector 400 HelloTest.mote[17].wlan[0].mac packetReceivedFromUpper:vector(packetBytes) ETV
attr interpolationmode none
attr title "packets received from upper layer, vector(packetBytes)"
vector 401 HelloTest.mote[17].wlan[0].mac.dcf.channelAccess.pendingQueue packetPushed:vector(packetBytes) ETV
attr interpolationmode none
attr title "packet pushed, vector(packetBytes)"
vector 402 HelloTest.mote[17].wlan[0].mac.dcf.channelAccess.pendingQueue queueLength:vector ETV
attr interpolationmode sample-hold
attr source "count(packetPushed) - count(packetPopped) - count(packetRemoved) - count(packetDropped)"
attr title "queue length, vector"
vector 403 HelloTest.mote[17].wlan[0].mac.dcf.channelAccess.contention backoffPeriodGenerated:vector ETV
attr interpolationmode none
attr title "backoff periods, vector"
vector 404 HelloTest.mote[17].wlan[0].mac.dcf.channelAccess.contention backoffActive:vector ETV
attr interpolationmode sample-hold
attr source count(backoffStarted)-count(backoffStopped)
attr title "backoff active, vector"
vector 405 HelloTest.mote[17].wlan[0].mac.dcf.channelAccess.pendingQueue packetPopped:vector(packetBytes) ETV
attr interpolationmode none
attr title "packet popped, vector(packetBytes)"
vector 406 HelloTest.mote[17].wlan[0].mac.dcf.channelAccess.pendingQueue queueingTime:vector ETV
attr interpolationmode none
attr source queueingTime(packetPopped)
attr title "queueing times, vector"
attr unit s
vector 407 HelloTest.mote[17].wlan[0].mac.dcf.channelAccess.inProgressFrames queueLength:vector ETV
attr interpolationmode sample-hold
attr source "count(packetEnqueued) - count(packetDequeued)"
attr title "queue length, vector"
vector 408 HelloTest.mote[17].wlan[0].mac.dcf datarateSelected:vector ETV
attr interpolationmode none
attr title "datarates selected, vector"
vector 409 HelloTest.mote[17].wlan[0].mac packetSentToLower:vector(packetBytes) ETV
attr interpolationmode none
attr title "packets sent to lower layer, vector(packetBytes)"
vector 410 HelloTest.mote[17].wlan[0].mac.dcf frameSequenceActive:vector ETV
attr interpolationmode sample-hold
attr source count(frameSequenceStarted)-count(frameSequenceFinished)
attr title "frame sequence active, vector"
vector 411 HelloTest.mote[17].wlan[0].radio transmissionState:vector ETV
attr interpolationmode sample-hold
attr source transmissionStateChanged
attr title "Radio transmission state, vector"
vector 412 HelloTest.mote[17].wlan[0].mac.dcf packetSentToPeer:vector(packetBytes) ETV
attr interpolationmode none
attr title "packets sent, vector(packetBytes)"
vector 413 HelloTest.mote[17].wlan[0].mac.dcf packetSentToPeerMulticast:vector(packetBytes) ETV
attr interpolationmode none
attr source ieee80211Multicast(packetSentToPeer)
attr title "packets sent: multicast, vector(packetBytes)"
vector 414 HelloTest.mote[17].wlan[0].mac.dcf packetSentToPeerBroadcast:vector(packetBytes) ETV
attr interpolationmode none
attr source ieee80211Broadcast(packetSentToPeer)
attr title "packets sent: broadcast , vector(packetBytes)"
vector 415 HelloTest.mote[17].wlan[0].mac.dcf packetSentToPeerWithoutRetry:vector(packetBytes) ETV
attr interpolationmode none
attr source ieee80211NotRetry(packetSentToPeer)
attr title "packets sent: without retry, vector(packetBytes)"
vector 416 HelloTest.mote[17].wlan[0].mac.dcf.channelAccess.inProgressFrames queueingTime:vector ETV
attr interpolationmode none
attr source queueingTime(packetDequeued)
attr title "queueing times, vector"
vector 417 HelloTest.mote[27].wlan[0].mac packetReceivedFromLower:vector(packetBytes) ETV
attr interpolationmode none
attr title "packets received from lower layer, vector(packetBytes)"
vector 418 HelloTest.mote[27].wlan[0].mac.dcf packetReceivedFromPeer:vector(packetBytes) ETV
attr interpolationmode none
attr title "packets received, vector(packetBytes)"
vector 419 HelloTest.mote[27].wlan[0].mac.dcf packetReceivedFromPeerMulticast:vector(packetBytes) ETV
attr interpolationmode none
attr source ieee80211Multicast(packetReceivedFromPeer)
attr title "packets received: multicast, vector(packetBytes)"
vector 420 HelloTest.mote[27].wlan[0].mac.dcf packetReceivedFromPeerBroadcast:vector(packetBytes) ETV
attr interpolationmode none
attr source ieee80211Broadcast(packetReceivedFromPeer)
attr title "packets received: broadcast, vector(packetBytes)"
vector 421 HelloTest.mote[27].wlan[0].mac.dcf packetReceivedFromPeerWithoutRetry:vector(packetBytes) ETV
attr interpolationmode none
attr source ieee80211NotRetry(packetReceivedFromPeer)
attr title "packets received: without retry, vector(packetBytes)"
vector 422 HelloTest.mote[27].wlan[0].mac packetSentToUpper:vector(packetBytes) ETV
attr interpolationmode none
attr title "packets sent to upper layer, vector(packetBytes)"
vector 423 HelloTest.mote[16].wlan[0].mac packetReceivedFromLower:vector(packetBytes) ETV
attr interpolationmode none
attr title "packets received from lower layer, vector(packetBytes)"
vector 424 HelloTest.mote[16].wlan[0].mac.dcf packetReceivedFromPeer:vector(packetBytes) ETV
attr interpolationmode none
attr title "packets received, vector(packetBytes)"
vector 425 HelloTest.mote[16].wlan[0].mac.dcf packetReceivedFromPeerMulticast:vector(packetBytes) ETV
attr interpolationmode none
attr source ieee80211Multicast(packetReceivedFromPeer)
attr title "packets received: multicast, vector(packetBytes)"
vector 426 HelloTest.mote[16].wlan[0].mac.dcf packetReceivedFromPeerBroadcast:vector(packetBytes) ETV
attr interpolationmode none
attr source ieee80211Broadcast(packetReceivedFromPeer)
attr title "packets received: broadcast, vector(packetBytes)"
vector 427 HelloTest.mote[16].wlan[0].mac.dcf packetReceivedFromPeerWithoutRetry:vector(packetBytes) ETV
attr interpolationmode none
attr source ieee80211NotRetry(packetReceivedFromPeer)
attr title "packets received: without retry, vector(packetBytes)"
vector 428 HelloTest.mote[16].wlan[0].mac packetSentToUpper:vector(packetBytes) ETV
attr interpolationmode none
attr title "packets sent to upper layer, vector(packetBytes)"
vector 429 HelloTest.mote[7].wlan[0].mac packetReceivedFromLower:vector(packetBytes) ETV
attr interpolationmode none
attr title "packets received from lower layer, vector(packetBytes)"
vector 430 HelloTest.mote[7].wlan[0].mac.dcf packetReceivedFromPeer:vector(packetBytes) ETV
attr interpolationmode none
attr title "packets received, vector(packetBytes)"
vector 431 HelloTest.mote[7].wlan[0].mac.dcf packetReceivedFromPeerMulticast:vector(packetBytes) ETV
attr interpolationmode none
attr source ieee80211Multicast(packetReceivedFromPeer)
attr title "packets received: multicast, vector(packetBytes)"
vector 432 HelloTest.mote[7].wlan[0].mac.dcf packetReceivedFromPeerBroadcast:vector(packetBytes) ETV
attr interpolationmode none
attr source ieee80211Broadcast(packetReceivedFromPeer)
attr title "packets received: broadcast, vector(packetBytes)"
vector 433 HelloTest.mote[7].wlan[0].mac.dcf packetReceivedFromPeerWithoutRetry:vector(packetBytes) ETV
attr interpolationmode none
attr source ieee80211NotRetry(packetReceivedFromPeer)
attr title "packets received: without retry, vector(packetBytes)"
vector 434 HelloTest.mote[7].wlan[0].mac packetSentToUpper:vector(packetBytes) ETV
attr interpolationmode none
attr title "packets sent to upper layer, vector(packetBytes)"
vector 435 HelloTest.mote[18].wlan[0].mac packetReceivedFromLower:vector(packetBytes) ETV
attr interpolationmode none
attr title "packets received from lower layer, vector(packetBytes)"
vector 436 HelloTest.mote[18].wlan[0].mac.dcf packetReceivedFromPeer:vector(packetBytes) ETV
attr interpolationmode none
attr title "packets received, vector(packetBytes)"
vector 437 HelloTest.mote[18].wlan[0].mac.dcf packetReceivedFromPeerMulticast:vector(packetBytes) ETV
attr interpolationmode none
attr source ieee80211Multicast(packetReceivedFromPeer)
attr title "packets received: multicast, vector(packetBytes)"
vector 438 HelloTest.mote[18].wlan[0].mac.dcf packetReceivedFromPeerBroadcast:vector(packetBytes) ETV
attr interpolationmode none
attr source ieee80211Broadcast(packetReceivedFromPeer)
attr title "packets received: broadcast, vector(packetBytes)"
vector 439 HelloTest.mote[18].wlan[0].mac.dcf packetReceivedFromPeerWithoutRetry:vector(packetBytes) ETV
attr interpolationmode none
attr source ieee80211NotRetry(packetReceivedFromPeer)
attr title "packets received: without retry, vector(packetBytes)"
vector 440 HelloTest.mote[18].wlan[0].mac packetSentToUpper:vector(packetBytes) ETV
attr interpolationmode none
attr title "packets sent to upper layer, vector(packetBytes)"
vector 441 HelloTest.mote[26].wlan[0].mac packetReceivedFromLower:vector(packetBytes) ETV
attr interpolationmode none
attr title "packets received from lower layer, vector(packetBytes)"
vector 442 HelloTest.mote[26].wlan[0].mac.dcf packetReceivedFromPeer:vector(packetBytes) ETV
attr interpolationmode none
attr title "packets received, vector(packetBytes)"
vector 443 HelloTest.mote[26].wlan[0].mac.dcf packetReceivedFromPeerMulticast:vector(packetBytes) ETV
attr interpolationmode none
attr source ieee80211Multicast(packetReceivedFromPeer)
attr title "packets received: multicast, vector(packetBytes)"
vector 444 HelloTest.mote[26].wlan[0].mac.dcf packetReceivedFromPeerBroadcast:vector(packetBytes) ETV
attr interpolationmode none
attr source ieee80211Broadcast(packetReceivedFromPeer)
attr title "packets received: broadcast, vector(packetBytes)"
vector 445 HelloTest.mote[26].wlan[0].mac.dcf packetReceivedFromPeerWithoutRetry:vector(packetBytes) ETV
attr interpolationmode none
attr source ieee80211NotRetry(packetReceivedFromPeer)
[...]
1673	626470 56 3595 3615 35.193756393855 35.193810393855 2 0 1 1 1
1674	626526 112 3596 3616 35.193756393855 35.193810393855 4 0 2 4 6
1675	626638 29 3615 3615 35.193810393855 35.193810393855 1 74 74 74 5476
1676	626667 29 3615 3615 35.193810393855 35.193810393855 1 74 74 74 5476
1677	626696 29 3615 3615 35.193810393855 35.193810393855 1 74 74 74 5476
1678	626725 29 3615 3615 35.193810393855 35.193810393855 1 74 74 74 5476
1679	626754 34 3615 3615 35.193810393855 35.193810393855 1 5.4e-05 5.4e-05 5.4e-05 2.916e-09
1680	626788 29 3687 3687 35.199927598005 35.199927598005 1 46 46 46 2116
1681	626817 29 3687 3687 35.199927598005 35.199927598005 1 74 74 74 5476
1682	626846 56 3687 3689 35.199927598005 35.199927598005 2 0 1 1 1
1683	626902 28 3687 3687 35.199927598005 35.199927598005 1 6 6 6 36
1684	626930 56 3687 3688 35.199927598005 35.199927598005 2 0 1 1 1
1685	626986 29 3689 3689 35.199927598005 35.199927598005 1 74 74 74 5476
1686	627015 28 3689 3689 35.199927598005 35.199927598005 1 0 0 0 0
1687	627043 56 3689 3702 35.199927598005 35.199981598005 2 0 1 1 1
1688	627099 35 3689 3689 35.199927598005 35.199927598005 1 24000000 24000000 24000000 5.76e+14
1689	627134 29 3689 3689 35.199927598005 35.199927598005 1 74 74 74 5476
1690	627163 56 3689 3702 35.199927598005 35.199981598005 2 0 1 1 1
1691	627219 112 3690 3703 35.199927598005 35.199981598005 4 0 2 4 6
1692	627331 29 3702 3702 35.199981598005 35.199981598005 1 74 74 74 5476
1693	627360 29 3702 3702 35.199981598005 35.199981598005 1 74 74 74 5476
1694	627389 29 3702 3702 35.199981598005 35.199981598005 1 74 74 74 5476
1695	627418 29 3702 3702 35.199981598005 35.199981598005 1 74 74 74 5476
1696	627447 34 3702 3702 35.199981598005 35.199981598005 1 5.4e-05 5.4e-05 5.4e-05 2.916e-09
1697	627481 29 3748 3748 35.504809903214 35.504809903214 1 46 46 46 2116
1698	627510 29 3748 3748 35.504809903214 35.504809903214 1 74 74 74 5476
1699	627539 56 3748 3750 35.504809903214 35.504809903214 2 0 1 1 1
1700	627595 28 3748 3748 35.504809903214 35.504809903214 1 6 6 6 36
1701	627623 56 3748 3749 35.504809903214 35.504809903214 2 0 1 1 1
1702	627679 29 3750 3750 35.504809903214 35.504809903214 1 74 74 74 5476
1703	627708 28 3750 3750 35.504809903214 35.504809903214 1 0 0 0 0
1704	627736 56 3750 3773 35.504809903214 35.504863903214 2 0 1 1 1
1705	627792 35 3750 3750 35.504809903214 35.504809903214 1 24000000 24000000 24000000 5.76e+14
1706	627827 29 3750 3750 35.504809903214 35.504809903214 1 74 74 74 5476
1707	627856 56 3750 3773 35.504809903214 35.504863903214 2 0 1 1 1
1708	627912 112 3751 3774 35.504809903214 35.504863903214 4 0 2 4 6
1709	628024 29 3773 3773 35.504863903214 35.504863903214 1 74 74 74 5476
1710	628053 29 3773 3773 35.504863903214 35.504863903214 1 74 74 74 5476
1711	628082 29 3773 3773 35.504863903214 35.504863903214 1 74 74 74 5476
1712	628111 29 3773 3773 35.504863903214 35.504863903214 1 74 74 74 5476
1713	628140 34 3773 3773 35.504863903214 35.504863903214 1 5.4e-05 5.4e-05 5.4e-05 2.916e-09
1714	628174 29 3858 3858 35.608411193825 35.608411193825 1 46 46 46 2116
1715	628203 29 3858 3858 35.608411193825 35.608411193825 1 74 74 74 5476
1716	628232 56 3858 3860 35.608411193825 35.608411193825 2 0 1 1 1
1717	628288 28 3858 3858 35.608411193825 35.608411193825 1 3 3 3 9
1718	628316 56 3858 3859 35.608411193825 35.608411193825 2 0 1 1 1
1719	628372 29 3860 3860 35.608411193825 35.608411193825 1 74 74 74 5476
1720	628401 28 3860 3860 35.608411193825 35.608411193825 1 0 0 0 0
1721	628429 56 3860 3877 35.608411193825 35.608465193825 2 0 1 1 1
1722	628485 35 3860 3860 35.608411193825 35.608411193825 1 24000000 24000000 24000000 5.76e+14
1723	628520 29 3860 3860 35.608411193825 35.608411193825 1 74 74 74 5476
1724	628549 56 3860 3877 35.608411193825 35.608465193825 2 0 1 1 1
1725	628605 112 3861 3878 35.608411193825 35.608465193825 4 0 2 4 6
1726	628717 29 3877 3877 35.608465193825 35.608465193825 1 74 74 74 5476
1727	628746 29 3877 3877 35.608465193825 35.608465193825 1 74 74 74 5476
1728	628775 29 3877 3877 35.608465193825 35.608465193825 1 74 74 74 5476
1729	628804 29 3877 3877 35.608465193825 35.608465193825 1 74 74 74 5476
1730	628833 34 3877 3877 35.608465193825 35.608465193825 1 5.4e-05 5.4e-05 5.4e-05 2.916e-09
1731	628867 29 3938 3938 35.639905646676 35.639905646676 1 46 46 46 2116
1732	628896 29 3938 3938 35.639905646676 35.639905646676 1 74 74 74 5476
1733	628925 56 3938 3940 35.639905646676 35.639905646676 2 0 1 1 1
1734	628981 28 3938 3938 35.639905646676 35.639905646676 1 7 7 7 49
1735	629009 56 3938 3939 35.639905646676 35.639905646676 2 0 1 1 1
1736	629065 29 3940 3940 35.639905646676 35.639905646676 1 74 74 74 5476
1737	629094 28 3940 3940 35.639905646676 35.639905646676 1 0 0 0 0
1738	629122 56 3940 3960 35.639905646676 35.639959646676 2 0 1 1 1
1739	629178 35 3940 3940 35.639905646676 35.639905646676 1 24000000 24000000 24000000 5.76e+14
1740	629213 29 3940 3940 35.639905646676 35.639905646676 1 74 74 74 5476
1741	629242 56 3940 3960 35.639905646676 35.639959646676 2 0 1 1 1
1742	629298 112 3941 3961 35.639905646676 35.639959646676 4 0 2 4 6
1743	629410 29 3960 3960 35.639959646676 35.639959646676 1 74 74 74 5476
1744	629439 29 3960 3960 35.639959646676 35.639959646676 1 74 74 74 5476
1745	629468 29 3960 3960 35.639959646676 35.639959646676 1 74 74 74 5476
1746	629497 29 3960 3960 35.639959646676 35.639959646676 1 74 74 74 5476
1747	629526 34 3960 3960 35.639959646676 35.639959646676 1 5.4e-05 5.4e-05 5.4e-05 2.916e-09
1748	629560 29 4032 4032 35.646303574322 35.646303574322 1 46 46 46 2116
1749	629589 29 4032 4032 35.646303574322 35.646303574322 1 74 74 74 5476
1750	629618 56 4032 4034 35.646303574322 35.646303574322 2 0 1 1 1
1751	629674 28 4032 4032 35.646303574322 35.646303574322 1 0 0 0 0
1752	629702 56 4032 4033 35.646303574322 35.646303574322 2 0 1 1 1
1753	629758 29 4034 4034 35.646303574322 35.646303574322 1 74 74 74 5476
1754	629787 28 4034 4034 35.646303574322 35.646303574322 1 0 0 0 0
1755	629815 56 4034 4057 35.646303574322 35.646357574322 2 0 1 1 1
1756	629871 35 4034 4034 35.646303574322 35.646303574322 1 24000000 24000000 24000000 5.76e+14
1757	629906 29 4034 4034 35.646303574322 35.646303574322 1 74 74 74 5476
1758	629935 56 4034 4057 35.646303574322 35.646357574322 2 0 1 1 1
1759	629991 112 4035 4058 35.646303574322 35.646357574322 4 0 2 4 6
1760	630103 29 4057 4057 35.646357574322 35.646357574322 1 74 74 74 5476
1761	630132 29 4057 4057 35.646357574322 35.646357574322 1 74 74 74 5476
1762	630161 29 4057 4057 35.646357574322 35.646357574322 1 74 74 74 5476
1763	630190 29 4057 4057 35.646357574322 35.646357574322 1 74 74 74 5476
1764	630219 34 4057 4057 35.646357574322 35.646357574322 1 5.4e-05 5.4e-05 5.4e-05 2.916e-09
1765	630253 29 4143 4143 35.711227365537 35.711227365537 1 46 46 46 2116
1766	630282 29 4143 4143 35.711227365537 35.711227365537 1 74 74 74 5476
1767	630311 56 4143 4145 35.711227365537 35.711227365537 2 0 1 1 1
1768	630367 28 4143 4143 35.711227365537 35.711227365537 1 7 7 7 49
1769	630395 56 4143 4144 35.711227365537 35.711227365537 2 0 1 1 1
1770	630451 29 4145 4145 35.711227365537 35.711227365537 1 74 74 74 5476
1771	630480 28 4145 4145 35.711227365537 35.711227365537 1 0 0 0 0
1772	630508 56 4145 4160 35.711227365537 35.711281365537 2 0 1 1 1
1773	630564 35 4145 4145 35.711227365537 35.711227365537 1 24000000 24000000 24000000 5.76e+14
1774	630599 29 4145 4145 35.711227365537 35.711227365537 1 74 74 74 5476
1775	630628 56 4145 4160 35.711227365537 35.711281365537 2 0 1 1 1
1776	630684 112 4146 4161 35.711227365537 35.711281365537 4 0 2 4 6
1777	630796 29 4160 4160 35.711281365537 35.711281365537 1 74 74 74 5476
1778	630825 29 4160 4160 35.711281365537 35.711281365537 1 74 74 74 5476
1779	630854 29 4160 4160 35.711281365537 35.711281365537 1 74 74 74 5476
1780	630883 29 4160 4160 35.711281365537 35.711281365537 1 74 74 74 5476
1781	630912 34 4160 4160 35.711281365537 35.711281365537 1 5.4e-05 5.4e-05 5.4e-05 2.916e-09
1782	630946 29 4213 4213 35.792281273752 35.792281273752 1 46 46 46 2116
1783	630975 29 4213 4213 35.792281273752 35.792281273752 1 74 74 74 5476
1784	631004 56 4213 4215 35.792281273752 35.792281273752 2 0 1 1 1
1785	631060 28 4213 4213 35.792281273752 35.792281273752 1 1 1 1 1
1786	631088 56 4213 4214 35.792281273752 35.792281273752 2 0 1 1 1
1787	631144 29 4215 4215 35.792281273752 35.792281273752 1 74 74 74 5476
1788	631173 28 4215 4215 35.792281273752 35.792281273752 1 0 0 0 0
1789	631201 56 4215 4235 35.792281273752 35.792335273752 2 0 1 1 1
1790	631257 35 4215 4215 35.792281273752 35.792281273752 1 24000000 24000000 24000000 5.76e+14
1791	631292 29 4215 4215 35.792281273752 35.792281273752 1 74 74 74 5476
1792	631321 56 4215 4235 35.792281273752 35.792335273752 2 0 1 1 1
1793	631377 112 4216 4236 35.792281273752 35.792335273752 4 0 2 4 6
1794	631489 29 4235 4235 35.792335273752 35.792335273752 1 74 74 74 5476
1795	631518 29 4235 4235 35.792335273752 35.792335273752 1 74 74 74 5476
1796	631547 29 4235 4235 35.792335273752 35.792335273752 1 74 74 74 5476
1797	631576 29 4235 4235 35.792335273752 35.792335273752 1 74 74 74 5476
1798	631605 34 4235 4235 35.792335273752 35.792335273752 1 5.4e-05 5.4e-05 5.4e-05 2.916e-09
1799	631639 29 4308 4308 35.808924998855 35.808924998855 1 46 46 46 2116
1800	631668 29 4308 4308 35.808924998855 35.808924998855 1 74 74 74 5476
1801	631697 56 4308 4310 35.808924998855 35.808924998855 2 0 1 1 1
1802	631753 28 4308 4308 35.808924998855 35.808924998855 1 4 4 4 16
1803	631781 56 4308 4309 35.808924998855 35.808924998855 2 0 1 1 1
1804	631837 29 4310 4310 35.808924998855 35.808924998855 1 74 74 74 5476
1805	631866 28 4310 4310 35.808924998855 35.808924998855 1 0 0 0 0
1806	631894 56 4310 4325 35.808924998855 35.808978998855 2 0 1 1 1
1807	631950 35 4310 4310 35.808924998855 35.808924998855 1 24000000 24000000 24000000 5.76e+14
1808	631985 29 4310 4310 35.808924998855 35.808924998855 1 74 74 74 5476
1809	632014 56 4310 4325 35.808924998855 35.808978998855 2 0 1 1 1
1810	632070 112 4311 4326 35.808924998855 35.808978998855 4 0 2 4 6
1811	632182 29 4325 4325 35.808978998855 35.808978998855 1 74 74 74 5476
1812	632211 29 4325 4325 35.808978998855 35.808978998855 1 74 74 74 5476
1813	632240 29 4325 4325 35.808978998855 35.808978998855 1 74 74 74 5476
1814	632269 29 4325 4325 35.808978998855 35.808978998855 1 74 74 74 5476
1815	632298 34 4325 4325 35.808978998855 35.808978998855 1 5.4e-05 5.4e-05 5.4e-05 2.916e-09
1816	632332 29 4378 4378 36.016640185844 36.016640185844 1 46 46 46 2116
1817	632361 29 4378 4378 36.016640185844 36.016640185844 1 74 74 74 5476
1818	632390 56 4378 4380 36.016640185844 36.016640185844 2 0 1 1 1
1819	632446 28 4378 4378 36.016640185844 36.016640185844 1 2 2 2 4
1820	632474 56 4378 4379 36.016640185844 36.016640185844 2 0 1 1 1
1821	632530 29 4380 4380 36.016640185844 36.016640185844 1 74 74 74 5476
1822	632559 28 4380 4380 36.016640185844 36.016640185844 1 0 0 0 0
1823	632587 56 4380 4400 36.016640185844 36.016694185844 2 0 1 1 1
1824	632643 35 4380 4380 36.016640185844 36.016640185844 1 24000000 24000000 24000000 5.76e+14
1825	632678 29 4380 4380 36.016640185844 36.016640185844 1 74 74 74 5476
1826	632707 56 4380 4400 36.016640185844 36.016694185844 2 0 1 1 1
1827	632763 112 4381 4401 36.016640185844 36.016694185844 4 0 2 4 6
1828	632875 29 4400 4400 36.016694185844 36.016694185844 1 74 74 74 5476
1829	632904 29 4400 4400 36.016694185844 36.016694185844 1 74 74 74 5476
1830	632933 29 4400 4400 36.016694185844 36.016694185844 1 74 74 74 5476
1831	632962 29 4400 4400 36.016694185844 36.016694185844 1 74 74 74 5476
1832	632991 34 4400 4400 36.016694185844 36.016694185844 1 5.4e-05 5.4e-05 5.4e-05 2.916e-09
1833	633025 29 4473 4473 36.100351520581 36.100351520581 1 46 46 46 2116
1834	633054 29 4473 4473 36.100351520581 36.100351520581 1 74 74 74 5476
1835	633083 56 4473 4475 36.100351520581 36.100351520581 2 0 1 1 1
1836	633139 28 4473 4473 36.100351520581 36.100351520581 1 3 3 3 9
1837	633167 56 4473 4474 36.100351520581 36.100351520581 2 0 1 1 1
1838	633223 29 4475 4475 36.100351520581 36.100351520581 1 74 74 74 5476
1839	633252 28 4475 4475 36.100351520581 36.100351520581 1 0 0 0 0
1840	633280 56 4475 4492 36.100351520581 36.100405520581 2 0 1 1 1
1841	633336 35 4475 4475 36.100351520581 36.100351520581 1 24000000 24000000 24000000 5.76e+14
1842	633371 29 4475 4475 36.100351520581 36.100351520581 1 74 74 74 5476
1843	633400 56 4475 4492 36.100351520581 36.100405520581 2 0 1 1 1
1844	633456 112 4476 4493 36.100351520581 36.100405520581 4 0 2 4 6
1845	633568 29 4492 4492 36.100405520581 36.100405520581 1 74 74 74 5476
1846	633597 29 4492 4492 36.100405520581 36.100405520581 1 74 74 74 5476
1847	633626 29 4492 4492 36.100405520581 36.100405520581 1 74 74 74 5476
1848	633655 29 4492 4492 36.100405520581 36.100405520581 1 74 74 74 5476
1849	633684 34 4492 4492 36.100405520581 36.100405520581 1 5.4e-05 5.4e-05 5.4e-05 2.916e-09
1850	633718 29 4553 4553 36.139687788673 36.139687788673 1 46 46 46 2116
1851	633747 29 4553 4553 36.139687788673 36.139687788673 1 74 74 74 5476
1852	633776 56 4553 4555 36.139687788673 36.139687788673 2 0 1 1 1
1853	633832 28 4553 4553 36.139687788673 36.139687788673 1 2 2 2 4
1854	633860 56 4553 4554 36.139687788673 36.139687788673 2 0 1 1 1
1855	633916 29 4555 4555 36.139687788673 36.139687788673 1 74 74 74 5476
1856	633945 28 4555 4555 36.139687788673 36.139687788673 1 0 0 0 0
1857	633973 56 4555 4570 36.139687788673 36.139741788673 2 0 1 1 1
1858	634029 35 4555 4555 36.139687788673 36.139687788673 1 24000000 24000000 24000000 5.76e+14
1859	634064 29 4555 4555 36.139687788673 36.139687788673 1 74 74 74 5476
1860	634093 56 4555 4570 36.139687788673 36.139741788673 2 0 1 1 1
1861	634149 112 4556 4571 36.139687788673 36.139741788673 4 0 2 4 6
1862	634261 29 4570 4570 36.139741788673 36.139741788673 1 74 74 74 5476
1863	634290 29 4570 4570 36.139741788673 36.139741788673 1 74 74 74 5476
1864	634319 29 4570 4570 36.139741788673 36.139741788673 1 74 74 74 5476
1865	634348 29 4570 4570 36.139741788673 36.139741788673 1 74 74 74 5476
1866	634377 34 4570 4570 36.139741788673 36.139741788673 1 5.4e-05 5.4e-05 5.4e-05 2.916e-09
1867	634411 29 4623 4623 36.603353385581 36.603353385581 1 46 46 46 2116
1868	634440 29 4623 4623 36.603353385581 36.603353385581 1 74 74 74 5476
1869	634469 56 4623 4625 36.603353385581 36.603353385581 2 0 1 1 1
1870	634525 28 4623 4623 36.603353385581 36.603353385581 1 5 5 5 25
1871	634553 56 4623 4624 36.603353385581 36.603353385581 2 0 1 1 1
1872	634609 29 4625 4625 36.603353385581 36.603353385581 1 74 74 74 5476
1873	634638 28 4625 4625 36.603353385581 36.603353385581 1 0 0 0 0
1874	634666 56 4625 4638 36.603353385581 36.603407385581 2 0 1 1 1
1875	634722 35 4625 4625 36.603353385581 36.603353385581 1 24000000 24000000 24000000 5.76e+14
1876	634757 29 4625 4625 36.603353385581 36.603353385581 1 74 74 74 5476
1877	634786 56 4625 4638 36.603353385581 36.603407385581 2 0 1 1 1
1878	634842 112 4626 4639 36.603353385581 36.603407385581 4 0 2 4 6
1879	634954 29 4638 4638 36.603407385581 36.603407385581 1 74 74 74 5476
1880	634983 29 4638 4638 36.603407385581 36.603407385581 1 74 74 74 5476
1881	635012 29 4638 4638 36.603407385581 36.603407385581 1 74 74 74 5476
1882	635041 29 4638 4638 36.603407385581 36.603407385581 1 74 74 74 5476
1883	635070 34 4638 4638 36.603407385581 36.603407385581 1 5.4e-05 5.4e-05 5.4e-05 2.916e-09
1884	635104 29 4683 4683 37.085686860373 37.085686860373 1 46 46 46 2116
1885	635133 29 4683 4683 37.085686860373 37.085686860373 1 74 74 74 5476
1886	635162 56 4683 4685 37.085686860373 37.085686860373 2 0 1 1 1
1887	635218 28 4683 4683 37.085686860373 37.085686860373 1 4 4 4 16
1888	635246 56 4683 4684 37.085686860373 37.085686860373 2 0 1 1 1
1889	635302 29 4685 4685 37.085686860373 37.085686860373 1 74 74 74 5476
1890	635331 28 4685 4685 37.085686860373 37.085686860373 1 0 0 0 0
1891	635359 56 4685 4708 37.085686860373 37.085740860373 2 0 1 1 1
1892	635415 35 4685 4685 37.085686860373 37.085686860373 1 24000000 24000000 24000000 5.76e+14
1893	635450 29 4685 4685 37.085686860373 37.085686860373 1 74 74 74 5476
1894	635479 56 4685 4708 37.085686860373 37.085740860373 2 0 1 1 1
1895	635535 112 4686 4709 37.085686860373 37.085740860373 4 0 2 4 6
1896	635647 29 4708 4708 37.085740860373 37.085740860373 1 74 74 74 5476
1897	635676 29 4708 4708 37.085740860373 37.085740860373 1 74 74 74 5476
1898	635705 29 4708 4708 37.085740860373 37.085740860373 1 74 74 74 5476
1899	635734 29 4708 4708 37.085740860373 37.085740860373 1 74 74 74 5476
1900	635763 34 4708 4708 37.085740860373 37.085740860373 1 5.4e-05 5.4e-05 5.4e-05 2.916e-09
1901	635797 28 4793 4793 37.41223681136 37.41223681136 1 46 46 46 2116
1902	635825 28 4793 4793 37.41223681136 37.41223681136 1 74 74 74 5476
1903	635853 54 4793 4795 37.41223681136 37.41223681136 2 0 1 1 1
1904	635907 27 4793 4793 37.41223681136 37.41223681136 1 2 2 2 4
1905	635934 54 4793 4794 37.41223681136 37.41223681136 2 0 1 1 1
1906	635988 28 4795 4795 37.41223681136 37.41223681136 1 74 74 74 5476
1907	636016 27 4795 4795 37.41223681136 37.41223681136 1 0 0 0 0
1908	636043 54 4795 4815 37.41223681136 37.41229081136 2 0 1 1 1
1909	636097 34 4795 4795 37.41223681136 37.41223681136 1 24000000 24000000 24000000 5.76e+14
1910	636131 28 4795 4795 37.41223681136 37.41223681136 1 74 74 74 5476
1911	636159 54 4795 4815 37.41223681136 37.41229081136 2 0 1 1 1
1912	636213 108 4796 4816 37.41223681136 37.41229081136 4 0 2 4 6
1913	636321 28 4815 4815 37.41229081136 37.41229081136 1 74 74 74 5476
1914	636349 28 4815 4815 37.41229081136 37.41229081136 1 74 74 74 5476
1915	636377 28 4815 4815 37.41229081136 37.41229081136 1 74 74 74 5476
1916	636405 28 4815 4815 37.41229081136 37.41229081136 1 74 74 74 5476
1917	636433 33 4815 4815 37.41229081136 37.41229081136 1 5.4e-05 5.4e-05 5.4e-05 2.916e-09
1918	636466 29 4888 4888 37.475117185386 37.475117185386 1 46 46 46 2116
1919	636495 29 4888 4888 37.475117185386 37.475117185386 1 74 74 74 5476
1920	636524 56 4888 4890 37.475117185386 37.475117185386 2 0 1 1 1
1921	636580 28 4888 4888 37.475117185386 37.475117185386 1 6 6 6 36
1922	636608 56 4888 4889 37.475117185386 37.475117185386 2 0 1 1 1
1923	636664 29 4890 4890 37.475117185386 37.475117185386 1 74 74 74 5476
1924	636693 28 4890 4890 37.475117185386 37.475117185386 1 0 0 0 0
1925	636721 56 4890 4913 37.475117185386 37.475171185386 2 0 1 1 1
1926	636777 35 4890 4890 37.475117185386 37.475117185386 1 24000000 24000000 24000000 5.76e+14
1927	636812 29 4890 4890 37.475117185386 37.475117185386 1 74 74 74 5476
1928	636841 56 4890 4913 37.475117185386 37.475171185386 2 0 1 1 1
1929	636897 112 4891 4914 37.475117185386 37.475171185386 4 0 2 4 6
1930	637009 29 4913 4913 37.475171185386 37.475171185386 1 74 74 74 5476
1931	637038 29 4913 4913 37.475171185386 37.475171185386 1 74 74 74 5476
1932	637067 29 4913 4913 37.475171185386 37.475171185386 1 74 74 74 5476
1933	637096 29 4913 4913 37.475171185386 37.475171185386 1 74 74 74 5476
1934	637125 34 4913 4913 37.475171185386 37.475171185386 1 5.4e-05 5.4e-05 5.4e-05 2.916e-09
1935	637159 29 4998 4998 37.730731742922 37.730731742922 1 46 46 46 2116
1936	637188 29 4998 4998 37.730731742922 37.730731742922 1 74 74 74 5476
1937	637217 56 4998 5000 37.730731742922 37.730731742922 2 0 1 1 1
1938	637273 28 4998 4998 37.730731742922 37.730731742922 1 1 1 1 1
1939	637301 56 4998 4999 37.730731742922 37.730731742922 2 0 1 1 1
1940	637357 29 5000 5000 37.730731742922 37.730731742922 1 74 74 74 5476
1941	637386 28 5000 5000 37.730731742922 37.730731742922 1 0 0 0 0
1942	637414 28 5000 5000 37.730731742922 37.730731742922 1 1 1 1 1
1943	637442 35 5000 5000 37.730731742922 37.730731742922 1 24000000 24000000 24000000 5.76e+14
1944	637477 29 5000 5000 37.730731742922 37.730731742922 1 74 74 74 5476
1945	637506 28 5000 5000 37.730731742922 37.730731742922 1 1 1 1 1
1946	637534 56 5001 5002 37.730731742922 37.730731742922 2 1 2 3 5

