version 2
run Hello-0-20200711-00:47:41-5468
attr configname Hello
attr datetime 20200711-00:47:41
attr experiment Hello
attr inifile omnetpp.ini
attr iterationvars $0=10
attr iterationvarsf 10-
attr measurement $0=10
attr network HelloTest
attr processid 5468
attr repetition 0
attr replication #0
attr resultdir results
attr runnumber 0
attr seedset 10
param **.mote[*].mobility.numHosts 16
param **.mote[0].enl.labeler.status "\"INITIATOR\""
param **.moteNumber 16
param **.mobility.typename "\"StaticGridMobility\""
param **.mobility.initFromDisplayString false
param **.broadcastTime 30s
param **.bcastDelay 15s
param **.maxAttemps 3
param **.wlan[*].typename "\"Ieee80211Interface\""
param **.wlan[*].radio.typename "\"Ieee80211ScalarRadio\""
param **.wlan[*].channelNumber 1
param **.wlan[*].radio.transmitter.power 20mW
param **.wlan[*].radio.transmitter.bitrate 18Mbps
param **.wlan[*].radio.receiver.sensitivity -85dBm
param **.wlan[*].radio.receiver.snirThreshold 4dB
param **.wlan[*].mac.dcf.channelAccess.cwMin 7
param **.wlan[*].mgmt.typename "\"Ieee80211MgmtAdhoc\""
param **.wlan[*].agent.typename "\"\""
param **.radioMedium.typename "\"Ieee80211ScalarRadioMedium\""
param **.radioMedium.neighborCache.typename "\"QuadTreeNeighborCache\""
param **.radioMedium.neighborCache.maxNumOfPointsPerQuadrant 16
param **.radioMedium.neighborCache.radioMediumModule "\"radioMedium\""
param **.radioMedium.rangeFilter "\"communicationRange\""
param **.radioMedium.mediumLimitCache.minReceptionPower -85dBm
param **.radioMedium.neighborCache.refillPeriod 3600s
param **.radioMedium.pathLoss.alpha 3.5
param **.radioMedium.mediumLimitCache.centerFrequency 2.412GHz
param **.enl.np.typename "\"ExtendedFlooding\""
param **.enl.np.defaultTtl 16
param **.constraintAreaMinX 0m
param **.constraintAreaMinY 0m
param **.constraintAreaMinZ 0m
param **.constraintAreaMaxX 150m
param **.constraintAreaMaxY 150m
param **.constraintAreaMaxZ 0m

scalar HelloTest.mote[0].mobility x 18.75
scalar HelloTest.mote[0].mobility y 18.75
scalar HelloTest.mote[0].mobility z 0
scalar HelloTest.mote[1].mobility x 56.25
scalar HelloTest.mote[1].mobility y 18.75
scalar HelloTest.mote[1].mobility z 0
scalar HelloTest.mote[2].mobility x 93.75
scalar HelloTest.mote[2].mobility y 18.75
scalar HelloTest.mote[2].mobility z 0
scalar HelloTest.mote[3].mobility x 131.25
scalar HelloTest.mote[3].mobility y 18.75
scalar HelloTest.mote[3].mobility z 0
scalar HelloTest.mote[4].mobility x 18.75
scalar HelloTest.mote[4].mobility y 56.25
scalar HelloTest.mote[4].mobility z 0
scalar HelloTest.mote[5].mobility x 56.25
scalar HelloTest.mote[5].mobility y 56.25
scalar HelloTest.mote[5].mobility z 0
scalar HelloTest.mote[6].mobility x 93.75
scalar HelloTest.mote[6].mobility y 56.25
scalar HelloTest.mote[6].mobility z 0
scalar HelloTest.mote[7].mobility x 131.25
scalar HelloTest.mote[7].mobility y 56.25
scalar HelloTest.mote[7].mobility z 0
scalar HelloTest.mote[8].mobility x 18.75
scalar HelloTest.mote[8].mobility y 93.75
scalar HelloTest.mote[8].mobility z 0
scalar HelloTest.mote[9].mobility x 56.25
scalar HelloTest.mote[9].mobility y 93.75
scalar HelloTest.mote[9].mobility z 0
scalar HelloTest.mote[10].mobility x 93.75
scalar HelloTest.mote[10].mobility y 93.75
scalar HelloTest.mote[10].mobility z 0
scalar HelloTest.mote[11].mobility x 131.25
scalar HelloTest.mote[11].mobility y 93.75
scalar HelloTest.mote[11].mobility z 0
scalar HelloTest.mote[12].mobility x 18.75
scalar HelloTest.mote[12].mobility y 131.25
scalar HelloTest.mote[12].mobility z 0
scalar HelloTest.mote[13].mobility x 56.25
scalar HelloTest.mote[13].mobility y 131.25
scalar HelloTest.mote[13].mobility z 0
scalar HelloTest.mote[14].mobility x 93.75
scalar HelloTest.mote[14].mobility y 131.25
scalar HelloTest.mote[14].mobility z 0
scalar HelloTest.mote[15].mobility x 131.25
scalar HelloTest.mote[15].mobility y 131.25
scalar HelloTest.mote[15].mobility z 0
scalar HelloTest.radioMedium.propagation "Arrival computation count" 240
scalar HelloTest.radioMedium "transmission count" 16
scalar HelloTest.radioMedium "signal send count" 48
scalar HelloTest.radioMedium "reception computation count" 48
scalar HelloTest.radioMedium "interference computation count" 176
scalar HelloTest.radioMedium "reception decision computation count" 48
scalar HelloTest.radioMedium "listening decision computation count" 80
scalar HelloTest.radioMedium "reception cache hit" 85.714285714286
attr unit %
scalar HelloTest.radioMedium "interference cache hit" 66.666666666667
attr unit %
scalar HelloTest.radioMedium "noise cache hit" 0
attr unit %
scalar HelloTest.radioMedium "snir cache hit" 50
attr unit %
scalar HelloTest.radioMedium "reception decision cache hit" 50
attr unit %
scalar HelloTest.radioMedium "reception result cache hit" 0
attr unit %
scalar HelloTest.mote[0].wlan[0].mac.dcf.channelAccess.pendingQueue packetPopped:count 1
attr interpolationmode none
attr title "packet popped, count"
scalar HelloTest.mote[0].wlan[0].mac.dcf.channelAccess.pendingQueue packetPopped:sum(packetBytes) 104
attr interpolationmode none
attr title "packet popped, sum(packetBytes)"
statistic HelloTest.mote[0].wlan[0].mac.dcf.channelAccess.pendingQueue queueingTime:histogram
field count 1
field mean 0
field stddev -nan
field min 0
field max 0
field sum 0
field sqrsum 0
attr interpolationmode none
attr source queueingTime(packetPopped)
attr title "queueing times, histogram"
attr unit s
bin	-inf	0
bin	-0.5	0
bin	-0.48	0
bin	-0.46	0
bin	-0.44	0
bin	-0.42	0
bin	-0.4	0
bin	-0.38	0
bin	-0.36	0
bin	-0.34	0
bin	-0.32	0
bin	-0.3	0
bin	-0.28	0
bin	-0.26	0
bin	-0.24	0
bin	-0.22	0
bin	-0.2	0
bin	-0.18	0
bin	-0.16	0
bin	-0.14	0
bin	-0.12	0
bin	-0.1	0
bin	-0.08	0
bin	-0.06	0
bin	-0.04	0
bin	-0.02	0
bin	0	1
bin	0.02	0
bin	0.04	0
bin	0.06	0
bin	0.08	0
bin	0.1	0
bin	0.12	0
bin	0.14	0
bin	0.16	0
bin	0.18	0
bin	0.2	0
bin	0.22	0
bin	0.24	0
bin	0.26	0
bin	0.28	0
bin	0.3	0
bin	0.32	0
bin	0.34	0
bin	0.36	0
bin	0.38	0
bin	0.4	0
bin	0.42	0
bin	0.44	0
bin	0.46	0
bin	0.48	0
bin	0.5	0
scalar HelloTest.mote[0].wlan[0].mac.dcf.channelAccess.pendingQueue queueLength:max 1
attr interpolationmode sample-hold
attr source "count(packetPushed) - count(packetPopped) - count(packetRemoved) - count(packetDropped)"
attr title "queue length, max"
scalar HelloTest.mote[0].wlan[0].mac.dcf.channelAccess.pendingQueue queueLength:timeavg 0
attr interpolationmode sample-hold
attr source "count(packetPushed) - count(packetPopped) - count(packetRemoved) - count(packetDropped)"
attr title "queue length, timeavg"
scalar HelloTest.mote[0].wlan[0].mac.dcf.channelAccess.pendingQueue packetPushed:count 1
attr interpolationmode none
attr title "packet pushed, count"
scalar HelloTest.mote[0].wlan[0].mac.dcf.channelAccess.pendingQueue packetPushed:sum(packetBytes) 104
attr interpolationmode none
attr title "packet pushed, sum(packetBytes)"
scalar HelloTest.mote[0].wlan[0].mac.dcf.channelAccess.pendingQueue packetDropQueueOverflow:count 0
attr interpolationmode none
attr source packetDropReasonIsQueueOverflow(packetDropped)
attr title "packet drops: queue overflow, count"
scalar HelloTest.mote[0].wlan[0].mac.dcf.channelAccess.pendingQueue packetDropQueueOverflow:sum(packetBytes) 0
attr interpolationmode none
attr source packetDropReasonIsQueueOverflow(packetDropped)
attr title "packet drops: queue overflow, sum(packetBytes)"
scalar HelloTest.mote[0].wlan[0].mac.dcf.channelAccess.pendingQueue packetRemoved:count 0
attr interpolationmode none
attr title "packets removed, count"
scalar HelloTest.mote[0].wlan[0].mac.dcf.channelAccess.pendingQueue packetRemoved:sum(packetBytes) 0
attr interpolationmode none
attr title "packets removed, sum(packetBytes)"
statistic HelloTest.mote[0].wlan[0].mac.dcf.channelAccess.inProgressFrames queueingTime:histogram
field count 1
field mean 6.2e-05
field stddev -nan
field min 6.2e-05
field max 6.2e-05
field sum 6.2e-05
field sqrsum 3.844e-09
attr interpolationmode none
attr source queueingTime(packetDequeued)
attr title "queueing times, histogram"
bin	-inf	0
bin	0	1
bin	0.01	0
bin	0.02	0
bin	0.03	0
bin	0.04	0
bin	0.05	0
bin	0.06	0
bin	0.07	0
bin	0.08	0
bin	0.09	0
bin	0.1	0
bin	0.11	0
bin	0.12	0
bin	0.13	0
bin	0.14	0
bin	0.15	0
bin	0.16	0
bin	0.17	0
bin	0.18	0
bin	0.19	0
bin	0.2	0
bin	0.21	0
bin	0.22	0
bin	0.23	0
bin	0.24	0
bin	0.25	0
bin	0.26	0
bin	0.27	0
bin	0.28	0
bin	0.29	0
bin	0.3	0
bin	0.31	0
bin	0.32	0
bin	0.33	0
bin	0.34	0
bin	0.35	0
bin	0.36	0
bin	0.37	0
bin	0.38	0
bin	0.39	0
bin	0.4	0
bin	0.41	0
bin	0.42	0
bin	0.43	0
bin	0.44	0
bin	0.45	0
bin	0.46	0
bin	0.47	0
bin	0.48	0
bin	0.49	0
bin	0.5	0
bin	0.51	0
scalar HelloTest.mote[0].wlan[0].mac.dcf.channelAccess.inProgressFrames queueLength:max 1
attr interpolationmode sample-hold
attr source "count(packetEnqueued) - count(packetDequeued)"
attr title "queue length, max"
scalar HelloTest.mote[0].wlan[0].mac.dcf.channelAccess.inProgressFrames queueLength:timeavg 3.5943975046953e-06
attr interpolationmode sample-hold
attr source "count(packetEnqueued) - count(packetDequeued)"
attr title "queue length, timeavg"
scalar HelloTest.mote[0].wlan[0].mac.dcf.channelAccess.contention channelAccessGranted:count 1
attr title "channel access granted, count"
scalar HelloTest.mote[0].wlan[0].mac.dcf.channelAccess.contention stateChanged:count 16
attr interpolationmode none
attr title "contention state changed, count"
scalar HelloTest.mote[0].wlan[0].mac.dcf.channelAccess channelOwnershipChanged:count 2
attr interpolationmode sample-hold
attr title "channel ownership, count"
scalar HelloTest.mote[0].wlan[0].mac.dcf.originatorMacDataService packetAggregated:count 0
attr title "packets aggregated, count"
scalar HelloTest.mote[0].wlan[0].mac.dcf.originatorMacDataService packetFragmented:count 0
attr title "packets fragmented, count"
scalar HelloTest.mote[0].wlan[0].mac.dcf.recipientMacDataService packetDeaggregated:count 0
attr title "packets deaggregated, count"
scalar HelloTest.mote[0].wlan[0].mac.dcf.recipientMacDataService packetDefragmented:count 2
attr title "packets defragmented, count"
scalar HelloTest.mote[0].wlan[0].mac.dcf.recipientMacDataService packetDropDuplicateDetected:count 0
attr interpolationmode none
attr source packetDropReasonIsDuplicateDetected(packetDropped)
attr title "packet drops: duplicate detected, count"
scalar HelloTest.mote[0].wlan[0].mac.dcf.recipientMacDataService packetDropDuplicateDetected:sum(packetBytes) 0
attr interpolationmode none
attr source packetDropReasonIsDuplicateDetected(packetDropped)
attr title "packet drops: duplicate detected, sum(packetBytes)"
scalar HelloTest.mote[0].wlan[0].mac.dcf.recoveryProcedure retryLimitReached:count 0
attr title "retry limit reached, count"
scalar HelloTest.mote[0].wlan[0].mac.dcf frameSequenceFinished:count 1
attr title "finished frame sequences, count"
statistic HelloTest.mote[0].wlan[0].mac.dcf frameSequenceDuration:histogram
field count 1
field mean 6.2e-05
field stddev -nan
field min 6.2e-05
field max 6.2e-05
field sum 6.2e-05
field sqrsum 3.844e-09
attr source frameSequenceDuration(frameSequenceFinished)
attr title "frame sequence durations, histogram"
bin	-inf	0
bin	0	1
bin	0.01	0
bin	0.02	0
bin	0.03	0
bin	0.04	0
bin	0.05	0
bin	0.06	0
bin	0.07	0
bin	0.08	0
bin	0.09	0
bin	0.1	0
bin	0.11	0
bin	0.12	0
bin	0.13	0
bin	0.14	0
bin	0.15	0
bin	0.16	0
bin	0.17	0
bin	0.18	0
bin	0.19	0
bin	0.2	0
bin	0.21	0
bin	0.22	0
bin	0.23	0
bin	0.24	0
bin	0.25	0
bin	0.26	0
bin	0.27	0
bin	0.28	0
bin	0.29	0
bin	0.3	0
bin	0.31	0
bin	0.32	0
bin	0.33	0
bin	0.34	0
bin	0.35	0
bin	0.36	0
bin	0.37	0
bin	0.38	0
bin	0.39	0
bin	0.4	0
bin	0.41	0
bin	0.42	0
bin	0.43	0
bin	0.44	0
bin	0.45	0
bin	0.46	0
bin	0.47	0
bin	0.48	0
bin	0.49	0
bin	0.5	0
bin	0.51	0
statistic HelloTest.mote[0].wlan[0].mac.dcf frameSequenceNumPackets:histogram
field count 1
field mean 1
field stddev -nan
field min 1
field max 1
field sum 1
field sqrsum 1
attr source frameSequenceNumPackets(frameSequenceFinished)
attr title "frame sequences: number of packets, histogram"
bin	-inf	0
bin	0	0
bin	1	1
bin	2	0
scalar HelloTest.mote[0].wlan[0].mac.dcf packetReceivedFromPeer:count 2
attr interpolationmode none
attr title "packets received, count"
scalar HelloTest.mote[0].wlan[0].mac.dcf packetReceivedFromPeer:sum(packetBytes) 208
attr interpolationmode none
attr title "packets received, sum(packetBytes)"
scalar HelloTest.mote[0].wlan[0].mac.dcf packetReceivedFromPeerUnicast:count 0
attr interpolationmode none
attr source ieee80211Unicast(packetReceivedFromPeer)
attr title "packets received: unicast, count"
scalar HelloTest.mote[0].wlan[0].mac.dcf packetReceivedFromPeerUnicast:sum(packetBytes) 0
attr interpolationmode none
attr source ieee80211Unicast(packetReceivedFromPeer)
attr title "packets received: unicast, sum(packetBytes)"
scalar HelloTest.mote[0].wlan[0].mac.dcf packetReceivedFromPeerMulticast:count 2
attr interpolationmode none
attr source ieee80211Multicast(packetReceivedFromPeer)
attr title "packets received: multicast, count"
scalar HelloTest.mote[0].wlan[0].mac.dcf packetReceivedFromPeerMulticast:sum(packetBytes) 208
attr interpolationmode none
attr source ieee80211Multicast(packetReceivedFromPeer)
attr title "packets received: multicast, sum(packetBytes)"
scalar HelloTest.mote[0].wlan[0].mac.dcf packetReceivedFromPeerBroadcast:count 2
attr interpolationmode none
attr source ieee80211Broadcast(packetReceivedFromPeer)
attr title "packets received: broadcast, count"
scalar HelloTest.mote[0].wlan[0].mac.dcf packetReceivedFromPeerBroadcast:sum(packetBytes) 208
attr interpolationmode none
attr source ieee80211Broadcast(packetReceivedFromPeer)
attr title "packets received: broadcast, sum(packetBytes)"
scalar HelloTest.mote[0].wlan[0].mac.dcf packetReceivedFromPeerWithRetry:count 0
attr interpolationmode none
attr source ieee80211Retry(packetReceivedFromPeer)
attr title "packets received: with retry, count"
scalar HelloTest.mote[0].wlan[0].mac.dcf packetReceivedFromPeerWithRetry:sum(packetBytes) 0
attr interpolationmode none
attr source ieee80211Retry(packetReceivedFromPeer)
attr title "packets received: with retry, sum(packetBytes)"
scalar HelloTest.mote[0].wlan[0].mac.dcf packetReceivedFromPeerWithoutRetry:count 2
attr interpolationmode none
attr source ieee80211NotRetry(packetReceivedFromPeer)
attr title "packets received: without retry, count"
scalar HelloTest.mote[0].wlan[0].mac.dcf packetReceivedFromPeerWithoutRetry:sum(packetBytes) 208
attr interpolationmode none
attr source ieee80211NotRetry(packetReceivedFromPeer)
attr title "packets received: without retry, sum(packetBytes)"
scalar HelloTest.mote[0].wlan[0].mac.dcf packetSentToPeer:count 1
attr interpolationmode none
attr title "packets sent, count"
scalar HelloTest.mote[0].wlan[0].mac.dcf packetSentToPeer:sum(packetBytes) 104
attr interpolationmode none
attr title "packets sent, sum(packetBytes)"
scalar HelloTest.mote[0].wlan[0].mac.dcf packetSentToPeerUnicast:count 0
attr interpolationmode none
attr source ieee80211Unicast(packetSentToPeer)
attr title "packets sent: unicast, count"
scalar HelloTest.mote[0].wlan[0].mac.dcf packetSentToPeerUnicast:sum(packetBytes) 0
attr interpolationmode none
attr source ieee80211Unicast(packetSentToPeer)
attr title "packets sent: unicast, sum(packetBytes)"
scalar HelloTest.mote[0].wlan[0].mac.dcf packetSentToPeerMulticast:count 1
attr interpolationmode none
attr source ieee80211Multicast(packetSentToPeer)
attr title "packets sent: multicast, count"
scalar HelloTest.mote[0].wlan[0].mac.dcf packetSentToPeerMulticast:sum(packetBytes) 104
attr interpolationmode none
attr source ieee80211Multicast(packetSentToPeer)
attr title "packets sent: multicast, sum(packetBytes)"
scalar HelloTest.mote[0].wlan[0].mac.dcf packetSentToPeerBroadcast:count 1
attr interpolationmode none
attr source ieee80211Broadcast(packetSentToPeer)
attr title "packets sent: broadcast , count"
scalar HelloTest.mote[0].wlan[0].mac.dcf packetSentToPeerBroadcast:sum(packetBytes) 104
attr interpolationmode none
attr source ieee80211Broadcast(packetSentToPeer)
attr title "packets sent: broadcast , sum(packetBytes)"
scalar HelloTest.mote[0].wlan[0].mac.dcf packetSentToPeerWithRetry:count 0
attr interpolationmode none
attr source ieee80211Retry(packetSentToPeer)
attr title "packets sent: with retry, count"
scalar HelloTest.mote[0].wlan[0].mac.dcf packetSentToPeerWithRetry:sum(packetBytes) 0
attr interpolationmode none
attr source ieee80211Retry(packetSentToPeer)
attr title "packets sent: with retry, sum(packetBytes)"
scalar HelloTest.mote[0].wlan[0].mac.dcf packetSentToPeerWithoutRetry:count 1
attr interpolationmode none
attr source ieee80211NotRetry(packetSentToPeer)
attr title "packets sent: without retry, count"
scalar HelloTest.mote[0].wlan[0].mac.dcf packetSentToPeerWithoutRetry:sum(packetBytes) 104
attr interpolationmode none
attr source ieee80211NotRetry(packetSentToPeer)
attr title "packets sent: without retry, sum(packetBytes)"
scalar HelloTest.mote[0].wlan[0].mac.dcf packetDrop:count 0
attr interpolationmode none
attr source packetDropped
attr title "packet drops, count"
scalar HelloTest.mote[0].wlan[0].mac.dcf packetDrop:sum(packetBytes) 0
attr interpolationmode none
attr source packetDropped
attr title "packet drops, sum(packetBytes)"
scalar HelloTest.mote[0].wlan[0].mac.dcf packetDropNotAddressedToUs:count 0
attr interpolationmode none
attr source packetDropReasonIsNotAddressedToUs(packetDropped)
attr title "packet drops: not addressed to us, count"
scalar HelloTest.mote[0].wlan[0].mac.dcf packetDropNotAddressedToUs:sum(packetBytes) 0
attr interpolationmode none
attr source packetDropReasonIsNotAddressedToUs(packetDropped)
attr title "packet drops: not addressed to us, sum(packetBytes)"
scalar HelloTest.mote[0].wlan[0].mac.dcf packetDropQueueOverflow:count 0
attr interpolationmode none
attr source packetDropReasonIsQueueOverflow(packetDropped)
attr title "packet drops: queue overflow, count"
scalar HelloTest.mote[0].wlan[0].mac.dcf packetDropQueueOverflow:sum(packetBytes) 0
attr interpolationmode none
attr source packetDropReasonIsQueueOverflow(packetDropped)
attr title "packet drops: queue overflow, sum(packetBytes)"
scalar HelloTest.mote[0].wlan[0].mac.dcf packetDropRetryLimitReached:count 0
attr interpolationmode none
attr source packetDropReasonIsRetryLimitReached(packetDropped)
attr title "packet drops: retry limit reached, count"
scalar HelloTest.mote[0].wlan[0].mac.dcf packetDropRetryLimitReached:sum(packetBytes) 0
attr interpolationmode none
attr source packetDropReasonIsRetryLimitReached(packetDropped)
attr title "packet drops: retry limit reached, sum(packetBytes)"
scalar HelloTest.mote[0].wlan[0].mac.dcf linkBroken:count 0
attr interpolationmode none
attr title "link breaks, count"
scalar HelloTest.mote[0].wlan[0].mac packetReceivedFromLower:count 2
attr interpolationmode none
attr title "packets received from lower layer, count"
scalar HelloTest.mote[0].wlan[0].mac packetReceivedFromLower:sum(packetBytes) 208
attr interpolationmode none
attr title "packets received from lower layer, sum(packetBytes)"
scalar HelloTest.mote[0].wlan[0].mac packetSentToLower:count 1
attr interpolationmode none
attr title "packets sent to lower layer, count"
scalar HelloTest.mote[0].wlan[0].mac packetSentToLower:sum(packetBytes) 104
attr interpolationmode none
attr title "packets sent to lower layer, sum(packetBytes)"
scalar HelloTest.mote[0].wlan[0].mac packetReceivedFromUpper:count 1
attr interpolationmode none
attr title "packets received from upper layer, count"
scalar HelloTest.mote[0].wlan[0].mac packetReceivedFromUpper:sum(packetBytes) 76
attr interpolationmode none
attr title "packets received from upper layer, sum(packetBytes)"
scalar HelloTest.mote[0].wlan[0].mac packetSentToUpper:count 2
attr interpolationmode none
attr title "packets sent to upper layer, count"
scalar HelloTest.mote[0].wlan[0].mac packetSentToUpper:sum(packetBytes) 152
attr interpolationmode none
attr title "packets sent to upper layer, sum(packetBytes)"
scalar HelloTest.mote[0].wlan[0].mac packetDrop:count 0
attr interpolationmode none
attr source packetDropped
attr title "packet drops, count"
scalar HelloTest.mote[0].wlan[0].mac packetDrop:sum(packetBytes) 0
attr interpolationmode none
attr source packetDropped
attr title "packet drops, sum(packetBytes)"
scalar HelloTest.mote[0].wlan[0].mac packetDropIncorrectlyReceived:count 0
attr interpolationmode none
attr source packetDropReasonIsIncorrectlyReceived(packetDropped)
attr title "packet drops: incorrectly received, count"
scalar HelloTest.mote[0].wlan[0].mac packetDropIncorrectlyReceived:sum(packetBytes) 0
attr interpolationmode none
attr source packetDropReasonIsIncorrectlyReceived(packetDropped)
attr title "packet drops: incorrectly received, sum(packetBytes)"
scalar HelloTest.mote[0].wlan[0].mac packetDropNotAddressedToUs:count 0
attr interpolationmode none
attr source packetDropReasonIsNotAddressedToUs(packetDropped)
attr title "packet drops: not addressed to us, count"
scalar HelloTest.mote[0].wlan[0].mac packetDropNotAddressedToUs:sum(packetBytes) 0
attr interpolationmode none
attr source packetDropReasonIsNotAddressedToUs(packetDropped)
attr title "packet drops: not addressed to us, sum(packetBytes)"
scalar HelloTest.mote[0].wlan[0].mac packetDropQueueOverflow:count 0
attr interpolationmode none
attr source packetDropReasonIsQueueOverflow(packetDropped)
attr title "packet drops: queue overflow, count"
scalar HelloTest.mote[0].wlan[0].mac packetDropQueueOverflow:sum(packetBytes) 0
attr interpolationmode none
attr source packetDropReasonIsQueueOverflow(packetDropped)
attr title "packet drops: queue overflow, sum(packetBytes)"
scalar HelloTest.mote[0].wlan[0].mac packetDropRetryLimitReached:count 0
attr interpolationmode none
attr source packetDropReasonIsRetryLimitReached(packetDropped)
attr title "packet drops: retry limit reached, count"
scalar HelloTest.mote[0].wlan[0].mac packetDropRetryLimitReached:sum(packetBytes) 0
attr interpolationmode none
attr source packetDropReasonIsRetryLimitReached(packetDropped)
attr title "packet drops: retry limit reached, sum(packetBytes)"
scalar HelloTest.mote[0].wlan[0].mac packetDropDuplicateDetected:count 0
attr interpolationmode none
attr source packetDropReasonIsDuplicateDetected(packetDropped)
attr title "packet drops: duplicate detected, count"
scalar HelloTest.mote[0].wlan[0].mac packetDropDuplicateDetected:sum(packetBytes) 0
attr interpolationmode none
attr source packetDropReasonIsDuplicateDetected(packetDropped)
attr title "packet drops: duplicate detected, sum(packetBytes)"
scalar HelloTest.mote[0].wlan[0].mac packetDropOther:count 0
attr interpolationmode none
attr source packetDropReasonIsOther(packetDropped)
attr title "packet drops: other, count"
scalar HelloTest.mote[0].wlan[0].mac packetDropOther:sum(packetBytes) 0
attr interpolationmode none
attr source packetDropReasonIsOther(packetDropped)
attr title "packet drops: other, sum(packetBytes)"
scalar HelloTest.mote[0].wlan[0].mac linkBroken:count 0
attr interpolationmode none
attr title "link breaks, count"
statistic HelloTest.mote[0].wlan[0].radio radioChannel:histogram
field count 0
field mean -nan
field stddev -nan
field min -nan
field max -nan
field sum 0
field sqrsum 0
attr interpolationmode sample-hold
attr source radioChannelChanged
attr title "Radio channel, histogram"
bin	-inf	0
bin	0	0
bin	1	0
scalar HelloTest.mote[0].wlan[0].radio radioMode:count 2
attr interpolationmode sample-hold
attr source radioModeChanged
attr title "Radio mode, count"
scalar HelloTest.mote[0].wlan[0].radio receptionState:count 6
attr interpolationmode sample-hold
attr source receptionStateChanged
attr title "Radio reception state, count"
scalar HelloTest.mote[0].wlan[0].radio transmissionState:count 4
attr interpolationmode sample-hold
attr source transmissionStateChanged
attr title "Radio transmission state, count"
statistic HelloTest.mote[0].wlan[0].radio minSnir:histogram
field count 2
field mean 605.88141287831
field stddev 0
field min 605.88141287831
field max 605.88141287831
field sum 1211.7628257566
field sqrsum 734184.57294284
attr source minimumSnir(packetSentToUpper)
attr title "Min SNIR, histogram"
bin	-inf	0
bin	605.38	0
bin	605.4	0
bin	605.42	0
bin	605.44	0
bin	605.46	0
bin	605.48	0
bin	605.5	0
bin	605.52	0
bin	605.54	0
bin	605.56	0
bin	605.58	0
bin	605.6	0
bin	605.62	0
bin	605.64	0
bin	605.66	0
bin	605.68	0
bin	605.7	0
bin	605.72	0
bin	605.74	0
bin	605.76	0
bin	605.78	0
bin	605.8	0
bin	605.82	0
bin	605.84	0
bin	605.86	0
bin	605.88	2
bin	605.9	0
bin	605.92	0
bin	605.94	0
bin	605.96	0
bin	605.98	0
bin	606	0
bin	606.02	0
bin	606.04	0
bin	606.06	0
bin	606.08	0
bin	606.1	0
bin	606.12	0
bin	606.14	0
bin	606.16	0
bin	606.18	0
bin	606.2	0
bin	606.22	0
bin	606.24	0
bin	606.26	0
bin	606.28	0
bin	606.3	0
bin	606.32	0
bin	606.34	0
bin	606.36	0
bin	606.38	0
bin	606.4	0
statistic HelloTest.mote[0].wlan[0].radio packetErrorRate:histogram
field count 2
field mean 0
field stddev 0
field min 0
field max 0
field sum 0
field sqrsum 0
attr source packetErrorRate(packetSentToUpper)
attr title "Packet error rate, histogram"
bin	-inf	0
bin	-0.5	0
bin	-0.48	0
bin	-0.46	0
bin	-0.44	0
bin	-0.42	0
bin	-0.4	0
bin	-0.38	0
bin	-0.36	0
bin	-0.34	0
bin	-0.32	0
bin	-0.3	0
bin	-0.28	0
bin	-0.26	0
bin	-0.24	0
bin	-0.22	0
bin	-0.2	0
bin	-0.18	0
bin	-0.16	0
bin	-0.14	0
bin	-0.12	0
bin	-0.1	0
bin	-0.08	0
bin	-0.06	0
bin	-0.04	0
bin	-0.02	0
bin	0	2
bin	0.02	0
bin	0.04	0
bin	0.06	0
bin	0.08	0
bin	0.1	0
bin	0.12	0
bin	0.14	0
bin	0.16	0
bin	0.18	0
bin	0.2	0
bin	0.22	0
bin	0.24	0
bin	0.26	0
bin	0.28	0
bin	0.3	0
bin	0.32	0
bin	0.34	0
bin	0.36	0
bin	0.38	0
bin	0.4	0
bin	0.42	0
bin	0.44	0
bin	0.46	0
bin	0.48	0
bin	0.5	0
statistic HelloTest.mote[0].wlan[0].radio bitErrorRate:histogram
field count 0
field mean -nan
field stddev -nan
field min -nan
field max -nan
field sum 0
field sqrsum 0
attr source bitErrorRate(packetSentToUpper)
attr title "Bit error rate, histogram"
bin	-inf	0
bin	0	0
bin	1	0
statistic HelloTest.mote[0].wlan[0].radio symbolErrorRate:histogram
field count 0
field mean -nan
field stddev -nan
field min -nan
field max -nan
field sum 0
field sqrsum 0
attr source symbolErrorRate(packetSentToUpper)
attr title "Symbol error rate, histogram"
bin	-inf	0
bin	0	0
bin	1	0
scalar HelloTest.mote[0].enl.np nbDataPacketsReceived 2
scalar HelloTest.mote[0].enl.np nbDataPacketsSent 1
scalar HelloTest.mote[0].enl.np nbDataPacketsForwarded 0
scalar HelloTest.mote[0].enl.np meanNbHops 1
scalar HelloTest.mote[1].wlan[0].mac.dcf.channelAccess.pendingQueue packetPopped:count 1
attr interpolationmode none
attr title "packet popped, count"
scalar HelloTest.mote[1].wlan[0].mac.dcf.channelAccess.pendingQueue packetPopped:sum(packetBytes) 104
attr interpolationmode none
attr title "packet popped, sum(packetBytes)"
statistic HelloTest.mote[1].wlan[0].mac.dcf.channelAccess.pendingQueue queueingTime:histogram
field count 1
field mean 0
field stddev -nan
field min 0
field max 0
field sum 0
field sqrsum 0
attr interpolationmode none
attr source queueingTime(packetPopped)
attr title "queueing times, histogram"
attr unit s
bin	-inf	0
bin	-0.5	0
bin	-0.48	0
bin	-0.46	0
bin	-0.44	0
bin	-0.42	0
bin	-0.4	0
bin	-0.38	0
bin	-0.36	0
bin	-0.34	0
bin	-0.32	0
bin	-0.3	0
bin	-0.28	0
bin	-0.26	0
bin	-0.24	0
bin	-0.22	0
bin	-0.2	0
bin	-0.18	0
bin	-0.16	0
bin	-0.14	0
bin	-0.12	0
bin	-0.1	0
bin	-0.08	0
bin	-0.06	0
bin	-0.04	0
bin	-0.02	0
bin	0	1
bin	0.02	0
bin	0.04	0
bin	0.06	0
bin	0.08	0
bin	0.1	0
bin	0.12	0
bin	0.14	0
bin	0.16	0
bin	0.18	0
bin	0.2	0
bin	0.22	0
bin	0.24	0
bin	0.26	0
bin	0.28	0
bin	0.3	0
bin	0.32	0
bin	0.34	0
bin	0.36	0
bin	0.38	0
bin	0.4	0
bin	0.42	0
bin	0.44	0
bin	0.46	0
bin	0.48	0
bin	0.5	0
scalar HelloTest.mote[1].wlan[0].mac.dcf.channelAccess.pendingQueue queueLength:max 1
attr interpolationmode sample-hold
attr source "count(packetPushed) - count(packetPopped) - count(packetRemoved) - count(packetDropped)"
attr title "queue length, max"
scalar HelloTest.mote[1].wlan[0].mac.dcf.channelAccess.pendingQueue queueLength:timeavg 0
attr interpolationmode sample-hold
attr source "count(packetPushed) - count(packetPopped) - count(packetRemoved) - count(packetDropped)"
attr title "queue length, timeavg"
scalar HelloTest.mote[1].wlan[0].mac.dcf.channelAccess.pendingQueue packetPushed:count 1
attr interpolationmode none
attr title "packet pushed, count"
scalar HelloTest.mote[1].wlan[0].mac.dcf.channelAccess.pendingQueue packetPushed:sum(packetBytes) 104
attr interpolationmode none
attr title "packet pushed, sum(packetBytes)"
scalar HelloTest.mote[1].wlan[0].mac.dcf.channelAccess.pendingQueue packetDropQueueOverflow:count 0
attr interpolationmode none
attr source packetDropReasonIsQueueOverflow(packetDropped)
attr title "packet drops: queue overflow, count"
scalar HelloTest.mote[1].wlan[0].mac.dcf.channelAccess.pendingQueue packetDropQueueOverflow:sum(packetBytes) 0
attr interpolationmode none
attr source packetDropReasonIsQueueOverflow(packetDropped)
attr title "packet drops: queue overflow, sum(packetBytes)"
scalar HelloTest.mote[1].wlan[0].mac.dcf.channelAccess.pendingQueue packetRemoved:count 0
attr interpolationmode none
attr title "packets removed, count"
scalar HelloTest.mote[1].wlan[0].mac.dcf.channelAccess.pendingQueue packetRemoved:sum(packetBytes) 0
attr interpolationmode none
attr title "packets removed, sum(packetBytes)"
statistic HelloTest.mote[1].wlan[0].mac.dcf.channelAccess.inProgressFrames queueingTime:histogram
field count 1
field mean 6.2e-05
field stddev -nan
field min 6.2e-05
field max 6.2e-05
field sum 6.2e-05
field sqrsum 3.844e-09
attr interpolationmode none
attr source queueingTime(packetDequeued)
attr title "queueing times, histogram"
bin	-inf	0
bin	0	1
bin	0.01	0
bin	0.02	0
bin	0.03	0
bin	0.04	0
bin	0.05	0
bin	0.06	0
bin	0.07	0
bin	0.08	0
bin	0.09	0
bin	0.1	0
bin	0.11	0
bin	0.12	0
bin	0.13	0
bin	0.14	0
bin	0.15	0
bin	0.16	0
bin	0.17	0
bin	0.18	0
bin	0.19	0
bin	0.2	0
bin	0.21	0
bin	0.22	0
bin	0.23	0
bin	0.24	0
bin	0.25	0
bin	0.26	0
bin	0.27	0
bin	0.28	0
bin	0.29	0
bin	0.3	0
bin	0.31	0
bin	0.32	0
bin	0.33	0
bin	0.34	0
bin	0.35	0
bin	0.36	0
bin	0.37	0
bin	0.38	0
bin	0.39	0
bin	0.4	0
bin	0.41	0
bin	0.42	0
bin	0.43	0
bin	0.44	0
bin	0.45	0
bin	0.46	0
bin	0.47	0
bin	0.48	0
bin	0.49	0
bin	0.5	0
bin	0.51	0
scalar HelloTest.mote[1].wlan[0].mac.dcf.channelAccess.inProgressFrames queueLength:max 1
attr interpolationmode sample-hold
attr source "count(packetEnqueued) - count(packetDequeued)"
attr title "queue length, max"
scalar HelloTest.mote[1].wlan[0].mac.dcf.channelAccess.inProgressFrames queueLength:timeavg 4.0629467855632e-06
attr interpolationmode sample-hold
attr source "count(packetEnqueued) - count(packetDequeued)"
attr title "queue length, timeavg"
scalar HelloTest.mote[1].wlan[0].mac.dcf.channelAccess.contention channelAccessGranted:count 1
attr title "channel access granted, count"
scalar HelloTest.mote[1].wlan[0].mac.dcf.channelAccess.contention stateChanged:count 20
attr interpolationmode none
attr title "contention state changed, count"
scalar HelloTest.mote[1].wlan[0].mac.dcf.channelAccess channelOwnershipChanged:count 2
attr interpolationmode sample-hold
attr title "channel ownership, count"
scalar HelloTest.mote[1].wlan[0].mac.dcf.originatorMacDataService packetAggregated:count 0
attr title "packets aggregated, count"
scalar HelloTest.mote[1].wlan[0].mac.dcf.originatorMacDataService packetFragmented:count 0
attr title "packets fragmented, count"
scalar HelloTest.mote[1].wlan[0].mac.dcf.recipientMacDataService packetDeaggregated:count 0
attr title "packets deaggregated, count"
scalar HelloTest.mote[1].wlan[0].mac.dcf.recipientMacDataService packetDefragmented:count 3
attr title "packets defragmented, count"
scalar HelloTest.mote[1].wlan[0].mac.dcf.recipientMacDataService packetDropDuplicateDetected:count 0
attr interpolationmode none
attr source packetDropReasonIsDuplicateDetected(packetDropped)
attr title "packet drops: duplicate detected, count"
scalar HelloTest.mote[1].wlan[0].mac.dcf.recipientMacDataService packetDropDuplicateDetected:sum(packetBytes) 0
attr interpolationmode none
attr source packetDropReasonIsDuplicateDetected(packetDropped)
attr title "packet drops: duplicate detected, sum(packetBytes)"
scalar HelloTest.mote[1].wlan[0].mac.dcf.recoveryProcedure retryLimitReached:count 0
attr title "retry limit reached, count"
scalar HelloTest.mote[1].wlan[0].mac.dcf frameSequenceFinished:count 1
attr title "finished frame sequences, count"
statistic HelloTest.mote[1].wlan[0].mac.dcf frameSequenceDuration:histogram
field count 1
field mean 6.2e-05
field stddev -nan
field min 6.2e-05
field max 6.2e-05
field sum 6.2e-05
field sqrsum 3.844e-09
attr source frameSequenceDuration(frameSequenceFinished)
attr title "frame sequence durations, histogram"
bin	-inf	0
bin	0	1
bin	0.01	0
bin	0.02	0
bin	0.03	0
bin	0.04	0
bin	0.05	0
bin	0.06	0
bin	0.07	0
bin	0.08	0
bin	0.09	0
bin	0.1	0
bin	0.11	0
bin	0.12	0
bin	0.13	0
bin	0.14	0
bin	0.15	0
bin	0.16	0
bin	0.17	0
bin	0.18	0
bin	0.19	0
bin	0.2	0
bin	0.21	0
bin	0.22	0
bin	0.23	0
bin	0.24	0
bin	0.25	0
bin	0.26	0
bin	0.27	0
bin	0.28	0
bin	0.29	0
bin	0.3	0
bin	0.31	0
bin	0.32	0
bin	0.33	0
bin	0.34	0
bin	0.35	0
bin	0.36	0
bin	0.37	0
bin	0.38	0
bin	0.39	0
bin	0.4	0
bin	0.41	0
bin	0.42	0
bin	0.43	0
bin	0.44	0
bin	0.45	0
bin	0.46	0
bin	0.47	0
bin	0.48	0
bin	0.49	0
bin	0.5	0
bin	0.51	0
statistic HelloTest.mote[1].wlan[0].mac.dcf frameSequenceNumPackets:histogram
field count 1
field mean 1
field stddev -nan
field min 1
field max 1
field sum 1
field sqrsum 1
attr source frameSequenceNumPackets(frameSequenceFinished)
attr title "frame sequences: number of packets, histogram"
bin	-inf	0
bin	0	0
bin	1	1
bin	2	0
scalar HelloTest.mote[1].wlan[0].mac.dcf packetReceivedFromPeer:count 3
attr interpolationmode none
attr title "packets received, count"
scalar HelloTest.mote[1].wlan[0].mac.dcf packetReceivedFromPeer:sum(packetBytes) 312
attr interpolationmode none
attr title "packets received, sum(packetBytes)"
scalar HelloTest.mote[1].wlan[0].mac.dcf packetReceivedFromPeerUnicast:count 0
attr interpolationmode none
attr source ieee80211Unicast(packetReceivedFromPeer)
attr title "packets received: unicast, count"
scalar HelloTest.mote[1].wlan[0].mac.dcf packetReceivedFromPeerUnicast:sum(packetBytes) 0
attr interpolationmode none
attr source ieee80211Unicast(packetReceivedFromPeer)
attr title "packets received: unicast, sum(packetBytes)"
scalar HelloTest.mote[1].wlan[0].mac.dcf packetReceivedFromPeerMulticast:count 3
attr interpolationmode none
attr source ieee80211Multicast(packetReceivedFromPeer)
attr title "packets received: multicast, count"
scalar HelloTest.mote[1].wlan[0].mac.dcf packetReceivedFromPeerMulticast:sum(packetBytes) 312
attr interpolationmode none
attr source ieee80211Multicast(packetReceivedFromPeer)
attr title "packets received: multicast, sum(packetBytes)"
scalar HelloTest.mote[1].wlan[0].mac.dcf packetReceivedFromPeerBroadcast:count 3
attr interpolationmode none
attr source ieee80211Broadcast(packetReceivedFromPeer)
attr title "packets received: broadcast, count"
scalar HelloTest.mote[1].wlan[0].mac.dcf packetReceivedFromPeerBroadcast:sum(packetBytes) 312
attr interpolationmode none
attr source ieee80211Broadcast(packetReceivedFromPeer)
attr title "packets received: broadcast, sum(packetBytes)"
scalar HelloTest.mote[1].wlan[0].mac.dcf packetReceivedFromPeerWithRetry:count 0
attr interpolationmode none
attr source ieee80211Retry(packetReceivedFromPeer)
attr title "packets received: with retry, count"
scalar HelloTest.mote[1].wlan[0].mac.dcf packetReceivedFromPeerWithRetry:sum(packetBytes) 0
attr interpolationmode none
attr source ieee80211Retry(packetReceivedFromPeer)
attr title "packets received: with retry, sum(packetBytes)"
scalar HelloTest.mote[1].wlan[0].mac.dcf packetReceivedFromPeerWithoutRetry:count 3
attr interpolationmode none
attr source ieee80211NotRetry(packetReceivedFromPeer)
attr title "packets received: without retry, count"
scalar HelloTest.mote[1].wlan[0].mac.dcf packetReceivedFromPeerWithoutRetry:sum(packetBytes) 312
attr interpolationmode none
attr source ieee80211NotRetry(packetReceivedFromPeer)
attr title "packets received: without retry, sum(packetBytes)"
scalar HelloTest.mote[1].wlan[0].mac.dcf packetSentToPeer:count 1
attr interpolationmode none
attr title "packets sent, count"
scalar HelloTest.mote[1].wlan[0].mac.dcf packetSentToPeer:sum(packetBytes) 104
attr interpolationmode none
attr title "packets sent, sum(packetBytes)"
scalar HelloTest.mote[1].wlan[0].mac.dcf packetSentToPeerUnicast:count 0
attr interpolationmode none
attr source ieee80211Unicast(packetSentToPeer)
attr title "packets sent: unicast, count"
scalar HelloTest.mote[1].wlan[0].mac.dcf packetSentToPeerUnicast:sum(packetBytes) 0
attr interpolationmode none
attr source ieee80211Unicast(packetSentToPeer)
attr title "packets sent: unicast, sum(packetBytes)"
scalar HelloTest.mote[1].wlan[0].mac.dcf packetSentToPeerMulticast:count 1
attr interpolationmode none
attr source ieee80211Multicast(packetSentToPeer)
attr title "packets sent: multicast, count"
scalar HelloTest.mote[1].wlan[0].mac.dcf packetSentToPeerMulticast:sum(packetBytes) 104
attr interpolationmode none
attr source ieee80211Multicast(packetSentToPeer)
attr title "packets sent: multicast, sum(packetBytes)"
scalar HelloTest.mote[1].wlan[0].mac.dcf packetSentToPeerBroadcast:count 1
attr interpolationmode none
attr source ieee80211Broadcast(packetSentToPeer)
attr title "packets sent: broadcast , count"
scalar HelloTest.mote[1].wlan[0].mac.dcf packetSentToPeerBroadcast:sum(packetBytes) 104
attr interpolationmode none
attr source ieee80211Broadcast(packetSentToPeer)
attr title "packets sent: broadcast , sum(packetBytes)"
scalar HelloTest.mote[1].wlan[0].mac.dcf packetSentToPeerWithRetry:count 0
attr interpolationmode none
attr source ieee80211Retry(packetSentToPeer)
attr title "packets sent: with retry, count"
scalar HelloTest.mote[1].wlan[0].mac.dcf packetSentToPeerWithRetry:sum(packetBytes) 0
attr interpolationmode none
attr source ieee80211Retry(packetSentToPeer)
attr title "packets sent: with retry, sum(packetBytes)"
scalar HelloTest.mote[1].wlan[0].mac.dcf packetSentToPeerWithoutRetry:count 1
attr interpolationmode none
attr source ieee80211NotRetry(packetSentToPeer)
attr title "packets sent: without retry, count"
scalar HelloTest.mote[1].wlan[0].mac.dcf packetSentToPeerWithoutRetry:sum(packetBytes) 104
attr interpolationmode none
attr source ieee80211NotRetry(packetSentToPeer)
attr title "packets sent: without retry, sum(packetBytes)"
scalar HelloTest.mote[1].wlan[0].mac.dcf packetDrop:count 0
attr interpolationmode none
attr source packetDropped
attr title "packet drops, count"
scalar HelloTest.mote[1].wlan[0].mac.dcf packetDrop:sum(packetBytes) 0
attr interpolationmode none
attr source packetDropped
attr title "packet drops, sum(packetBytes)"
scalar HelloTest.mote[1].wlan[0].mac.dcf packetDropNotAddressedToUs:count 0
attr interpolationmode none
attr source packetDropReasonIsNotAddressedToUs(packetDropped)
attr title "packet drops: not addressed to us, count"
scalar HelloTest.mote[1].wlan[0].mac.dcf packetDropNotAddressedToUs:sum(packetBytes) 0
attr interpolationmode none
attr source packetDropReasonIsNotAddressedToUs(packetDropped)
attr title "packet drops: not addressed to us, sum(packetBytes)"
scalar HelloTest.mote[1].wlan[0].mac.dcf packetDropQueueOverflow:count 0
attr interpolationmode none
attr source packetDropReasonIsQueueOverflow(packetDropped)
attr title "packet drops: queue overflow, count"
scalar HelloTest.mote[1].wlan[0].mac.dcf packetDropQueueOverflow:sum(packetBytes) 0
attr interpolationmode none
attr source packetDropReasonIsQueueOverflow(packetDropped)
attr title "packet drops: queue overflow, sum(packetBytes)"
scalar HelloTest.mote[1].wlan[0].mac.dcf packetDropRetryLimitReached:count 0
attr interpolationmode none
attr source packetDropReasonIsRetryLimitReached(packetDropped)
attr title "packet drops: retry limit reached, count"
scalar HelloTest.mote[1].wlan[0].mac.dcf packetDropRetryLimitReached:sum(packetBytes) 0
attr interpolationmode none
attr source packetDropReasonIsRetryLimitReached(packetDropped)
attr title "packet drops: retry limit reached, sum(packetBytes)"
scalar HelloTest.mote[1].wlan[0].mac.dcf linkBroken:count 0
attr interpolationmode none
attr title "link breaks, count"
scalar HelloTest.mote[1].wlan[0].mac packetReceivedFromLower:count 3
attr interpolationmode none
attr title "packets received from lower layer, count"
scalar HelloTest.mote[1].wlan[0].mac packetReceivedFromLower:sum(packetBytes) 312
attr interpolationmode none
attr title "packets received from lower layer, sum(packetBytes)"
scalar HelloTest.mote[1].wlan[0].mac packetSentToLower:count 1
attr interpolationmode none
attr title "packets sent to lower layer, count"
scalar HelloTest.mote[1].wlan[0].mac packetSentToLower:sum(packetBytes) 104
attr interpolationmode none
attr title "packets sent to lower layer, sum(packetBytes)"
scalar HelloTest.mote[1].wlan[0].mac packetReceivedFromUpper:count 1
attr interpolationmode none
attr title "packets received from upper layer, count"
scalar HelloTest.mote[1].wlan[0].mac packetReceivedFromUpper:sum(packetBytes) 76
attr interpolationmode none
attr title "packets received from upper layer, sum(packetBytes)"
scalar HelloTest.mote[1].wlan[0].mac packetSentToUpper:count 3
attr interpolationmode none
attr title "packets sent to upper layer, count"
scalar HelloTest.mote[1].wlan[0].mac packetSentToUpper:sum(packetBytes) 228
attr interpolationmode none
attr title "packets sent to upper layer, sum(packetBytes)"
scalar HelloTest.mote[1].wlan[0].mac packetDrop:count 0
attr interpolationmode none
attr source packetDropped
attr title "packet drops, count"
scalar HelloTest.mote[1].wlan[0].mac packetDrop:sum(packetBytes) 0
attr interpolationmode none
attr source packetDropped
attr title "packet drops, sum(packetBytes)"
scalar HelloTest.mote[1].wlan[0].mac packetDropIncorrectlyReceived:count 0
attr interpolationmode none
attr source packetDropReasonIsIncorrectlyReceived(packetDropped)
attr title "packet drops: incorrectly received, count"
scalar HelloTest.mote[1].wlan[0].mac packetDropIncorrectlyReceived:sum(packetBytes) 0
attr interpolationmode none
attr source packetDropReasonIsIncorrectlyReceived(packetDropped)
attr title "packet drops: incorrectly received, sum(packetBytes)"
scalar HelloTest.mote[1].wlan[0].mac packetDropNotAddressedToUs:count 0
attr interpolationmode none
attr source packetDropReasonIsNotAddressedToUs(packetDropped)
attr title "packet drops: not addressed to us, count"
scalar HelloTest.mote[1].wlan[0].mac packetDropNotAddressedToUs:sum(packetBytes) 0
attr interpolationmode none
attr source packetDropReasonIsNotAddressedToUs(packetDropped)
attr title "packet drops: not addressed to us, sum(packetBytes)"
scalar HelloTest.mote[1].wlan[0].mac packetDropQueueOverflow:count 0
attr interpolationmode none
attr source packetDropReasonIsQueueOverflow(packetDropped)
attr title "packet drops: queue overflow, count"
scalar HelloTest.mote[1].wlan[0].mac packetDropQueueOverflow:sum(packetBytes) 0
attr interpolationmode none
attr source packetDropReasonIsQueueOverflow(packetDropped)
attr title "packet drops: queue overflow, sum(packetBytes)"
scalar HelloTest.mote[1].wlan[0].mac packetDropRetryLimitReached:count 0
attr interpolationmode none
attr source packetDropReasonIsRetryLimitReached(packetDropped)
attr title "packet drops: retry limit reached, count"
scalar HelloTest.mote[1].wlan[0].mac packetDropRetryLimitReached:sum(packetBytes) 0
attr interpolationmode none
attr source packetDropReasonIsRetryLimitReached(packetDropped)
attr title "packet drops: retry limit reached, sum(packetBytes)"
scalar HelloTest.mote[1].wlan[0].mac packetDropDuplicateDetected:count 0
attr interpolationmode none
attr source packetDropReasonIsDuplicateDetected(packetDropped)
attr title "packet drops: duplicate detected, count"
scalar HelloTest.mote[1].wlan[0].mac packetDropDuplicateDetected:sum(packetBytes) 0
attr interpolationmode none
attr source packetDropReasonIsDuplicateDetected(packetDropped)
attr title "packet drops: duplicate detected, sum(packetBytes)"
scalar HelloTest.mote[1].wlan[0].mac packetDropOther:count 0
attr interpolationmode none
attr source packetDropReasonIsOther(packetDropped)
attr title "packet drops: other, count"
scalar HelloTest.mote[1].wlan[0].mac packetDropOther:sum(packetBytes) 0
attr interpolationmode none
attr source packetDropReasonIsOther(packetDropped)
attr title "packet drops: other, sum(packetBytes)"
scalar HelloTest.mote[1].wlan[0].mac linkBroken:count 0
attr interpolationmode none
attr title "link breaks, count"
statistic HelloTest.mote[1].wlan[0].radio radioChannel:histogram
field count 0
field mean -nan
field stddev -nan
field min -nan
field max -nan
field sum 0
field sqrsum 0
attr interpolationmode sample-hold
attr source radioChannelChanged
attr title "Radio channel, histogram"
bin	-inf	0
bin	0	0
bin	1	0
scalar HelloTest.mote[1].wlan[0].radio radioMode:count 2
attr interpolationmode sample-hold
attr source radioModeChanged
attr title "Radio mode, count"
scalar HelloTest.mote[1].wlan[0].radio receptionState:count 8
attr interpolationmode sample-hold
attr source receptionStateChanged
attr title "Radio reception state, count"
scalar HelloTest.mote[1].wlan[0].radio transmissionState:count 4
attr interpolationmode sample-hold
attr source transmissionStateChanged
attr title "Radio transmission state, count"
statistic HelloTest.mote[1].wlan[0].radio minSnir:histogram
field count 3
field mean 605.88141287831
field stddev 0
field min 605.88141287831
field max 605.88141287831
field sum 1817.6442386349
field sqrsum 1101276.8594143
attr source minimumSnir(packetSentToUpper)
attr title "Min SNIR, histogram"
bin	-inf	0
bin	605.38	0
bin	605.4	0
bin	605.42	0
bin	605.44	0
bin	605.46	0
bin	605.48	0
bin	605.5	0
bin	605.52	0
bin	605.54	0
bin	605.56	0
bin	605.58	0
bin	605.6	0
bin	605.62	0
bin	605.64	0
bin	605.66	0
bin	605.68	0
bin	605.7	0
bin	605.72	0
bin	605.74	0
bin	605.76	0
bin	605.78	0
bin	605.8	0
bin	605.82	0
bin	605.84	0
bin	605.86	0
bin	605.88	3
bin	605.9	0
bin	605.92	0
bin	605.94	0
bin	605.96	0
bin	605.98	0
bin	606	0
bin	606.02	0
bin	606.04	0
bin	606.06	0
bin	606.08	0
bin	606.1	0
bin	606.12	0
bin	606.14	0
bin	606.16	0
bin	606.18	0
bin	606.2	0
bin	606.22	0
bin	606.24	0
bin	606.26	0
bin	606.28	0
bin	606.3	0
bin	606.32	0
bin	606.34	0
bin	606.36	0
bin	606.38	0
bin	606.4	0
statistic HelloTest.mote[1].wlan[0].radio packetErrorRate:histogram
field count 3
field mean 0
field stddev 0
field min 0
field max 0
field sum 0
field sqrsum 0
attr source packetErrorRate(packetSentToUpper)
attr title "Packet error rate, histogram"
bin	-inf	0
bin	-0.5	0
bin	-0.48	0
bin	-0.46	0
bin	-0.44	0
bin	-0.42	0
bin	-0.4	0
bin	-0.38	0
bin	-0.36	0
bin	-0.34	0
bin	-0.32	0
bin	-0.3	0
bin	-0.28	0
bin	-0.26	0
bin	-0.24	0
bin	-0.22	0
bin	-0.2	0
bin	-0.18	0
bin	-0.16	0
bin	-0.14	0
bin	-0.12	0
bin	-0.1	0
bin	-0.08	0
bin	-0.06	0
bin	-0.04	0
bin	-0.02	0
bin	0	3
bin	0.02	0
bin	0.04	0
bin	0.06	0
bin	0.08	0
bin	0.1	0
bin	0.12	0
bin	0.14	0
bin	0.16	0
bin	0.18	0
bin	0.2	0
bin	0.22	0
bin	0.24	0
bin	0.26	0
bin	0.28	0
bin	0.3	0
bin	0.32	0
bin	0.34	0
bin	0.36	0
bin	0.38	0
bin	0.4	0
bin	0.42	0
bin	0.44	0
bin	0.46	0
bin	0.48	0
bin	0.5	0
statistic HelloTest.mote[1].wlan[0].radio bitErrorRate:histogram
field count 0
field mean -nan
field stddev -nan
field min -nan
field max -nan
field sum 0
field sqrsum 0
attr source bitErrorRate(packetSentToUpper)
attr title "Bit error rate, histogram"
bin	-inf	0
bin	0	0
bin	1	0
statistic HelloTest.mote[1].wlan[0].radio symbolErrorRate:histogram
field count 0
field mean -nan
field stddev -nan
field min -nan
field max -nan
field sum 0
field sqrsum 0
attr source symbolErrorRate(packetSentToUpper)
attr title "Symbol error rate, histogram"
bin	-inf	0
bin	0	0
bin	1	0
scalar HelloTest.mote[1].enl.np nbDataPacketsReceived 3
scalar HelloTest.mote[1].enl.np nbDataPacketsSent 1
scalar HelloTest.mote[1].enl.np nbDataPacketsForwarded 0
scalar HelloTest.mote[1].enl.np meanNbHops 1
scalar HelloTest.mote[2].wlan[0].mac.dcf.channelAccess.pendingQueue packetPopped:count 1
attr interpolationmode none
attr title "packet popped, count"
scalar HelloTest.mote[2].wlan[0].mac.dcf.channelAccess.pendingQueue packetPopped:sum(packetBytes) 104
attr interpolationmode none
attr title "packet popped, sum(packetBytes)"
statistic HelloTest.mote[2].wlan[0].mac.dcf.channelAccess.pendingQueue queueingTime:histogram
field count 1
field mean 0
field stddev -nan
field min 0
field max 0
field sum 0
field sqrsum 0
attr interpolationmode none
attr source queueingTime(packetPopped)
attr title "queueing times, histogram"
attr unit s
bin	-inf	0
bin	-0.5	0
bin	-0.48	0
bin	-0.46	0
bin	-0.44	0
bin	-0.42	0
bin	-0.4	0
bin	-0.38	0
bin	-0.36	0
bin	-0.34	0
bin	-0.32	0
bin	-0.3	0
bin	-0.28	0
bin	-0.26	0
bin	-0.24	0
bin	-0.22	0
bin	-0.2	0
bin	-0.18	0
bin	-0.16	0
bin	-0.14	0
bin	-0.12	0
bin	-0.1	0
bin	-0.08	0
bin	-0.06	0
bin	-0.04	0
bin	-0.02	0
bin	0	1
bin	0.02	0
bin	0.04	0
bin	0.06	0
bin	0.08	0
bin	0.1	0
bin	0.12	0
bin	0.14	0
bin	0.16	0
bin	0.18	0
bin	0.2	0
bin	0.22	0
bin	0.24	0
bin	0.26	0
bin	0.28	0
bin	0.3	0
bin	0.32	0
bin	0.34	0
bin	0.36	0
bin	0.38	0
bin	0.4	0
bin	0.42	0
bin	0.44	0
bin	0.46	0
bin	0.48	0
bin	0.5	0
scalar HelloTest.mote[2].wlan[0].mac.dcf.channelAccess.pendingQueue queueLength:max 1
attr interpolationmode sample-hold
attr source "count(packetPushed) - count(packetPopped) - count(packetRemoved) - count(packetDropped)"
attr title "queue length, max"
scalar HelloTest.mote[2].wlan[0].mac.dcf.channelAccess.pendingQueue queueLength:timeavg 0
attr interpolationmode sample-hold
attr source "count(packetPushed) - count(packetPopped) - count(packetRemoved) - count(packetDropped)"
attr title "queue length, timeavg"
scalar HelloTest.mote[2].wlan[0].mac.dcf.channelAccess.pendingQueue packetPushed:count 1
attr interpolationmode none
attr title "packet pushed, count"
scalar HelloTest.mote[2].wlan[0].mac.dcf.channelAccess.pendingQueue packetPushed:sum(packetBytes) 104
attr interpolationmode none
attr title "packet pushed, sum(packetBytes)"
scalar HelloTest.mote[2].wlan[0].mac.dcf.channelAccess.pendingQueue packetDropQueueOverflow:count 0
attr interpolationmode none
attr source packetDropReasonIsQueueOverflow(packetDropped)
attr title "packet drops: queue overflow, count"
scalar HelloTest.mote[2].wlan[0].mac.dcf.channelAccess.pendingQueue packetDropQueueOverflow:sum(packetBytes) 0
attr interpolationmode none
attr source packetDropReasonIsQueueOverflow(packetDropped)
attr title "packet drops: queue overflow, sum(packetBytes)"
scalar HelloTest.mote[2].wlan[0].mac.dcf.channelAccess.pendingQueue packetRemoved:count 0
attr interpolationmode none
attr title "packets removed, count"
scalar HelloTest.mote[2].wlan[0].mac.dcf.channelAccess.pendingQueue packetRemoved:sum(packetBytes) 0
attr interpolationmode none
attr title "packets removed, sum(packetBytes)"
statistic HelloTest.mote[2].wlan[0].mac.dcf.channelAccess.inProgressFrames queueingTime:histogram
field count 1
field mean 6.2e-05
field stddev -nan
field min 6.2e-05
field max 6.2e-05
field sum 6.2e-05
field sqrsum 3.844e-09
attr interpolationmode none
attr source queueingTime(packetDequeued)
attr title "queueing times, histogram"
bin	-inf	0
bin	0	1
bin	0.01	0
bin	0.02	0
bin	0.03	0
bin	0.04	0
bin	0.05	0
bin	0.06	0
bin	0.07	0
bin	0.08	0
bin	0.09	0
bin	0.1	0
bin	0.11	0
bin	0.12	0
bin	0.13	0
bin	0.14	0
bin	0.15	0
bin	0.16	0
bin	0.17	0
bin	0.18	0
bin	0.19	0
bin	0.2	0
bin	0.21	0
bin	0.22	0
bin	0.23	0
bin	0.24	0
bin	0.25	0
bin	0.26	0
bin	0.27	0
bin	0.28	0
bin	0.29	0
bin	0.3	0
bin	0.31	0
bin	0.32	0
bin	0.33	0
bin	0.34	0
bin	0.35	0
bin	0.36	0
bin	0.37	0
bin	0.38	0
bin	0.39	0
bin	0.4	0
bin	0.41	0
bin	0.42	0
bin	0.43	0
bin	0.44	0
bin	0.45	0
bin	0.46	0
bin	0.47	0
bin	0.48	0
bin	0.49	0
bin	0.5	0
bin	0.51	0
scalar HelloTest.mote[2].wlan[0].mac.dcf.channelAccess.inProgressFrames queueLength:max 1
attr interpolationmode sample-hold
attr source "count(packetEnqueued) - count(packetDequeued)"
attr title "queue length, max"
scalar HelloTest.mote[2].wlan[0].mac.dcf.channelAccess.inProgressFrames queueLength:timeavg 4.2598144923896e-06
attr interpolationmode sample-hold
attr source "count(packetEnqueued) - count(packetDequeued)"
attr title "queue length, timeavg"
scalar HelloTest.mote[2].wlan[0].mac.dcf.channelAccess.contention channelAccessGranted:count 1
attr title "channel access granted, count"
scalar HelloTest.mote[2].wlan[0].mac.dcf.channelAccess.contention stateChanged:count 20
attr interpolationmode none
attr title "contention state changed, count"
scalar HelloTest.mote[2].wlan[0].mac.dcf.channelAccess channelOwnershipChanged:count 2
attr interpolationmode sample-hold
attr title "channel ownership, count"
scalar HelloTest.mote[2].wlan[0].mac.dcf.originatorMacDataService packetAggregated:count 0
attr title "packets aggregated, count"
scalar HelloTest.mote[2].wlan[0].mac.dcf.originatorMacDataService packetFragmented:count 0
attr title "packets fragmented, count"
scalar HelloTest.mote[2].wlan[0].mac.dcf.recipientMacDataService packetDeaggregated:count 0
attr title "packets deaggregated, count"
scalar HelloTest.mote[2].wlan[0].mac.dcf.recipientMacDataService packetDefragmented:count 3
attr title "packets defragmented, count"
scalar HelloTest.mote[2].wlan[0].mac.dcf.recipientMacDataService packetDropDuplicateDetected:count 0
attr interpolationmode none
attr source packetDropReasonIsDuplicateDetected(packetDropped)
attr title "packet drops: duplicate detected, count"
scalar HelloTest.mote[2].wlan[0].mac.dcf.recipientMacDataService packetDropDuplicateDetected:sum(packetBytes) 0
attr interpolationmode none
attr source packetDropReasonIsDuplicateDetected(packetDropped)
attr title "packet drops: duplicate detected, sum(packetBytes)"
scalar HelloTest.mote[2].wlan[0].mac.dcf.recoveryProcedure retryLimitReached:count 0
attr title "retry limit reached, count"
scalar HelloTest.mote[2].wlan[0].mac.dcf frameSequenceFinished:count 1
attr title "finished frame sequences, count"
statistic HelloTest.mote[2].wlan[0].mac.dcf frameSequenceDuration:histogram
field count 1
field mean 6.2e-05
field stddev -nan
field min 6.2e-05
field max 6.2e-05
field sum 6.2e-05
field sqrsum 3.844e-09
attr source frameSequenceDuration(frameSequenceFinished)
attr title "frame sequence durations, histogram"
bin	-inf	0
bin	0	1
bin	0.01	0
bin	0.02	0
bin	0.03	0
bin	0.04	0
bin	0.05	0
bin	0.06	0
bin	0.07	0
bin	0.08	0
bin	0.09	0
bin	0.1	0
bin	0.11	0
bin	0.12	0
bin	0.13	0
bin	0.14	0
bin	0.15	0
bin	0.16	0
bin	0.17	0
bin	0.18	0
bin	0.19	0
bin	0.2	0
bin	0.21	0
bin	0.22	0
bin	0.23	0
bin	0.24	0
bin	0.25	0
bin	0.26	0
bin	0.27	0
bin	0.28	0
bin	0.29	0
bin	0.3	0
bin	0.31	0
bin	0.32	0
bin	0.33	0
bin	0.34	0
bin	0.35	0
bin	0.36	0
bin	0.37	0
bin	0.38	0
bin	0.39	0
bin	0.4	0
bin	0.41	0
bin	0.42	0
bin	0.43	0
bin	0.44	0
bin	0.45	0
bin	0.46	0
bin	0.47	0
bin	0.48	0
bin	0.49	0
bin	0.5	0
bin	0.51	0
statistic HelloTest.mote[2].wlan[0].mac.dcf frameSequenceNumPackets:histogram
field count 1
field mean 1
field stddev -nan
field min 1
field max 1
field sum 1
field sqrsum 1
attr source frameSequenceNumPackets(frameSequenceFinished)
attr title "frame sequences: number of packets, histogram"
bin	-inf	0
bin	0	0
bin	1	1
bin	2	0
scalar HelloTest.mote[2].wlan[0].mac.dcf packetReceivedFromPeer:count 3
attr interpolationmode none
attr title "packets received, count"
scalar HelloTest.mote[2].wlan[0].mac.dcf packetReceivedFromPeer:sum(packetBytes) 312
attr interpolationmode none
attr title "packets received, sum(packetBytes)"
scalar HelloTest.mote[2].wlan[0].mac.dcf packetReceivedFromPeerUnicast:count 0
attr interpolationmode none
attr source ieee80211Unicast(packetReceivedFromPeer)
attr title "packets received: unicast, count"
scalar HelloTest.mote[2].wlan[0].mac.dcf packetReceivedFromPeerUnicast:sum(packetBytes) 0
attr interpolationmode none
attr source ieee80211Unicast(packetReceivedFromPeer)
attr title "packets received: unicast, sum(packetBytes)"
scalar HelloTest.mote[2].wlan[0].mac.dcf packetReceivedFromPeerMulticast:count 3
attr interpolationmode none
attr source ieee80211Multicast(packetReceivedFromPeer)
attr title "packets received: multicast, count"
scalar HelloTest.mote[2].wlan[0].mac.dcf packetReceivedFromPeerMulticast:sum(packetBytes) 312
attr interpolationmode none
attr source ieee80211Multicast(packetReceivedFromPeer)
attr title "packets received: multicast, sum(packetBytes)"
scalar HelloTest.mote[2].wlan[0].mac.dcf packetReceivedFromPeerBroadcast:count 3
attr interpolationmode none
attr source ieee80211Broadcast(packetReceivedFromPeer)
attr title "packets received: broadcast, count"
scalar HelloTest.mote[2].wlan[0].mac.dcf packetReceivedFromPeerBroadcast:sum(packetBytes) 312
attr interpolationmode none
attr source ieee80211Broadcast(packetReceivedFromPeer)
attr title "packets received: broadcast, sum(packetBytes)"
scalar HelloTest.mote[2].wlan[0].mac.dcf packetReceivedFromPeerWithRetry:count 0
attr interpolationmode none
attr source ieee80211Retry(packetReceivedFromPeer)
attr title "packets received: with retry, count"
scalar HelloTest.mote[2].wlan[0].mac.dcf packetReceivedFromPeerWithRetry:sum(packetBytes) 0
attr interpolationmode none
attr source ieee80211Retry(packetReceivedFromPeer)
attr title "packets received: with retry, sum(packetBytes)"
scalar HelloTest.mote[2].wlan[0].mac.dcf packetReceivedFromPeerWithoutRetry:count 3
attr interpolationmode none
attr source ieee80211NotRetry(packetReceivedFromPeer)
attr title "packets received: without retry, count"
scalar HelloTest.mote[2].wlan[0].mac.dcf packetReceivedFromPeerWithoutRetry:sum(packetBytes) 312
attr interpolationmode none
attr source ieee80211NotRetry(packetReceivedFromPeer)
attr title "packets received: without retry, sum(packetBytes)"
scalar HelloTest.mote[2].wlan[0].mac.dcf packetSentToPeer:count 1
attr interpolationmode none
attr title "packets sent, count"
scalar HelloTest.mote[2].wlan[0].mac.dcf packetSentToPeer:sum(packetBytes) 104
attr interpolationmode none
attr title "packets sent, sum(packetBytes)"
scalar HelloTest.mote[2].wlan[0].mac.dcf packetSentToPeerUnicast:count 0
attr interpolationmode none
attr source ieee80211Unicast(packetSentToPeer)
attr title "packets sent: unicast, count"
scalar HelloTest.mote[2].wlan[0].mac.dcf packetSentToPeerUnicast:sum(packetBytes) 0
attr interpolationmode none
attr source ieee80211Unicast(packetSentToPeer)
attr title "packets sent: unicast, sum(packetBytes)"
scalar HelloTest.mote[2].wlan[0].mac.dcf packetSentToPeerMulticast:count 1
attr interpolationmode none
attr source ieee80211Multicast(packetSentToPeer)
attr title "packets sent: multicast, count"
scalar HelloTest.mote[2].wlan[0].mac.dcf packetSentToPeerMulticast:sum(packetBytes) 104
attr interpolationmode none
attr source ieee80211Multicast(packetSentToPeer)
attr title "packets sent: multicast, sum(packetBytes)"
scalar HelloTest.mote[2].wlan[0].mac.dcf packetSentToPeerBroadcast:count 1
attr interpolationmode none
attr source ieee80211Broadcast(packetSentToPeer)
attr title "packets sent: broadcast , count"
scalar HelloTest.mote[2].wlan[0].mac.dcf packetSentToPeerBroadcast:sum(packetBytes) 104
attr interpolationmode none
attr source ieee80211Broadcast(packetSentToPeer)
attr title "packets sent: broadcast , sum(packetBytes)"
scalar HelloTest.mote[2].wlan[0].mac.dcf packetSentToPeerWithRetry:count 0
attr interpolationmode none
attr source ieee80211Retry(packetSentToPeer)
attr title "packets sent: with retry, count"
scalar HelloTest.mote[2].wlan[0].mac.dcf packetSentToPeerWithRetry:sum(packetBytes) 0
attr interpolationmode none
attr source ieee80211Retry(packetSentToPeer)
attr title "packets sent: with retry, sum(packetBytes)"
scalar HelloTest.mote[2].wlan[0].mac.dcf packetSentToPeerWithoutRetry:count 1
attr interpolationmode none
attr source ieee80211NotRetry(packetSentToPeer)
attr title "packets sent: without retry, count"
scalar HelloTest.mote[2].wlan[0].mac.dcf packetSentToPeerWithoutRetry:sum(packetBytes) 104
attr interpolationmode none
attr source ieee80211NotRetry(packetSentToPeer)
attr title "packets sent: without retry, sum(packetBytes)"
scalar HelloTest.mote[2].wlan[0].mac.dcf packetDrop:count 0
attr interpolationmode none
attr source packetDropped
attr title "packet drops, count"
scalar HelloTest.mote[2].wlan[0].mac.dcf packetDrop:sum(packetBytes) 0
attr interpolationmode none
attr source packetDropped
attr title "packet drops, sum(packetBytes)"
scalar HelloTest.mote[2].wlan[0].mac.dcf packetDropNotAddressedToUs:count 0
attr interpolationmode none
attr source packetDropReasonIsNotAddressedToUs(packetDropped)
attr title "packet drops: not addressed to us, count"
scalar HelloTest.mote[2].wlan[0].mac.dcf packetDropNotAddressedToUs:sum(packetBytes) 0
attr interpolationmode none
attr source packetDropReasonIsNotAddressedToUs(packetDropped)
attr title "packet drops: not addressed to us, sum(packetBytes)"
scalar HelloTest.mote[2].wlan[0].mac.dcf packetDropQueueOverflow:count 0
attr interpolationmode none
attr source packetDropReasonIsQueueOverflow(packetDropped)
attr title "packet drops: queue overflow, count"
scalar HelloTest.mote[2].wlan[0].mac.dcf packetDropQueueOverflow:sum(packetBytes) 0
attr interpolationmode none
attr source packetDropReasonIsQueueOverflow(packetDropped)
attr title "packet drops: queue overflow, sum(packetBytes)"
scalar HelloTest.mote[2].wlan[0].mac.dcf packetDropRetryLimitReached:count 0
attr interpolationmode none
attr source packetDropReasonIsRetryLimitReached(packetDropped)
attr title "packet drops: retry limit reached, count"
scalar HelloTest.mote[2].wlan[0].mac.dcf packetDropRetryLimitReached:sum(packetBytes) 0
attr interpolationmode none
attr source packetDropReasonIsRetryLimitReached(packetDropped)
attr title "packet drops: retry limit reached, sum(packetBytes)"
scalar HelloTest.mote[2].wlan[0].mac.dcf linkBroken:count 0
attr interpolationmode none
attr title "link breaks, count"
scalar HelloTest.mote[2].wlan[0].mac packetReceivedFromLower:count 3
attr interpolationmode none
attr title "packets received from lower layer, count"
scalar HelloTest.mote[2].wlan[0].mac packetReceivedFromLower:sum(packetBytes) 312
attr interpolationmode none
attr title "packets received from lower layer, sum(packetBytes)"
scalar HelloTest.mote[2].wlan[0].mac packetSentToLower:count 1
attr interpolationmode none
attr title "packets sent to lower layer, count"
scalar HelloTest.mote[2].wlan[0].mac packetSentToLower:sum(packetBytes) 104
attr interpolationmode none
attr title "packets sent to lower layer, sum(packetBytes)"
scalar HelloTest.mote[2].wlan[0].mac packetReceivedFromUpper:count 1
attr interpolationmode none
attr title "packets received from upper layer, count"
scalar HelloTest.mote[2].wlan[0].mac packetReceivedFromUpper:sum(packetBytes) 76
attr interpolationmode none
attr title "packets received from upper layer, sum(packetBytes)"
scalar HelloTest.mote[2].wlan[0].mac packetSentToUpper:count 3
attr interpolationmode none
attr title "packets sent to upper layer, count"
scalar HelloTest.mote[2].wlan[0].mac packetSentToUpper:sum(packetBytes) 228
attr interpolationmode none
attr title "packets sent to upper layer, sum(packetBytes)"
scalar HelloTest.mote[2].wlan[0].mac packetDrop:count 0
attr interpolationmode none
attr source packetDropped
attr title "packet drops, count"
scalar HelloTest.mote[2].wlan[0].mac packetDrop:sum(packetBytes) 0
attr interpolationmode none
attr source packetDropped
attr title "packet drops, sum(packetBytes)"
scalar HelloTest.mote[2].wlan[0].mac packetDropIncorrectlyReceived:count 0
attr interpolationmode none
attr source packetDropReasonIsIncorrectlyReceived(packetDropped)
attr title "packet drops: incorrectly received, count"
scalar HelloTest.mote[2].wlan[0].mac packetDropIncorrectlyReceived:sum(packetBytes) 0
attr interpolationmode none
attr source packetDropReasonIsIncorrectlyReceived(packetDropped)
attr title "packet drops: incorrectly received, sum(packetBytes)"
scalar HelloTest.mote[2].wlan[0].mac packetDropNotAddressedToUs:count 0
attr interpolationmode none
attr source packetDropReasonIsNotAddressedToUs(packetDropped)
attr title "packet drops: not addressed to us, count"
scalar HelloTest.mote[2].wlan[0].mac packetDropNotAddressedToUs:sum(packetBytes) 0
attr interpolationmode none
attr source packetDropReasonIsNotAddressedToUs(packetDropped)
attr title "packet drops: not addressed to us, sum(packetBytes)"
scalar HelloTest.mote[2].wlan[0].mac packetDropQueueOverflow:count 0
attr interpolationmode none
attr source packetDropReasonIsQueueOverflow(packetDropped)
attr title "packet drops: queue overflow, count"
scalar HelloTest.mote[2].wlan[0].mac packetDropQueueOverflow:sum(packetBytes) 0
attr interpolationmode none
attr source packetDropReasonIsQueueOverflow(packetDropped)
attr title "packet drops: queue overflow, sum(packetBytes)"
scalar HelloTest.mote[2].wlan[0].mac packetDropRetryLimitReached:count 0
attr interpolationmode none
attr source packetDropReasonIsRetryLimitReached(packetDropped)
attr title "packet drops: retry limit reached, count"
scalar HelloTest.mote[2].wlan[0].mac packetDropRetryLimitReached:sum(packetBytes) 0
attr interpolationmode none
attr source packetDropReasonIsRetryLimitReached(packetDropped)
attr title "packet drops: retry limit reached, sum(packetBytes)"
scalar HelloTest.mote[2].wlan[0].mac packetDropDuplicateDetected:count 0
attr interpolationmode none
attr source packetDropReasonIsDuplicateDetected(packetDropped)
attr title "packet drops: duplicate detected, count"
scalar HelloTest.mote[2].wlan[0].mac packetDropDuplicateDetected:sum(packetBytes) 0
attr interpolationmode none
attr source packetDropReasonIsDuplicateDetected(packetDropped)
attr title "packet drops: duplicate detected, sum(packetBytes)"
scalar HelloTest.mote[2].wlan[0].mac packetDropOther:count 0
attr interpolationmode none
attr source packetDropReasonIsOther(packetDropped)
attr title "packet drops: other, count"
scalar HelloTest.mote[2].wlan[0].mac packetDropOther:sum(packetBytes) 0
attr interpolationmode none
attr source packetDropReasonIsOther(packetDropped)
attr title "packet drops: other, sum(packetBytes)"
scalar HelloTest.mote[2].wlan[0].mac linkBroken:count 0
attr interpolationmode none
attr title "link breaks, count"
statistic HelloTest.mote[2].wlan[0].radio radioChannel:histogram
field count 0
field mean -nan
field stddev -nan
field min -nan
field max -nan
field sum 0
field sqrsum 0
attr interpolationmode sample-hold
attr source radioChannelChanged
attr title "Radio channel, histogram"
bin	-inf	0
bin	0	0
bin	1	0
scalar HelloTest.mote[2].wlan[0].radio radioMode:count 2
attr interpolationmode sample-hold
attr source radioModeChanged
attr title "Radio mode, count"
scalar HelloTest.mote[2].wlan[0].radio receptionState:count 8
attr interpolationmode sample-hold
attr source receptionStateChanged
attr title "Radio reception state, count"
scalar HelloTest.mote[2].wlan[0].radio transmissionState:count 4
attr interpolationmode sample-hold
attr source transmissionStateChanged
attr title "Radio transmission state, count"
statistic HelloTest.mote[2].wlan[0].radio minSnir:histogram
field count 3
field mean 605.88141287831
field stddev 0
field min 605.88141287831
field max 605.88141287831
field sum 1817.6442386349
field sqrsum 1101276.8594143
attr source minimumSnir(packetSentToUpper)
attr title "Min SNIR, histogram"
bin	-inf	0
bin	605.38	0
bin	605.4	0
bin	605.42	0
bin	605.44	0
bin	605.46	0
bin	605.48	0
bin	605.5	0
bin	605.52	0
bin	605.54	0
bin	605.56	0
bin	605.58	0
bin	605.6	0
bin	605.62	0
bin	605.64	0
bin	605.66	0
bin	605.68	0
bin	605.7	0
bin	605.72	0
bin	605.74	0
bin	605.76	0
bin	605.78	0
bin	605.8	0
bin	605.82	0
bin	605.84	0
bin	605.86	0
bin	605.88	3
bin	605.9	0
bin	605.92	0
bin	605.94	0
bin	605.96	0
bin	605.98	0
bin	606	0
bin	606.02	0
bin	606.04	0
bin	606.06	0
bin	606.08	0
bin	606.1	0
bin	606.12	0
bin	606.14	0
bin	606.16	0
bin	606.18	0
bin	606.2	0
bin	606.22	0
bin	606.24	0
bin	606.26	0
bin	606.28	0
bin	606.3	0
bin	606.32	0
bin	606.34	0
bin	606.36	0
bin	606.38	0
bin	606.4	0
statistic HelloTest.mote[2].wlan[0].radio packetErrorRate:histogram
field count 3
field mean 0
field stddev 0
field min 0
field max 0
field sum 0
field sqrsum 0
attr source packetErrorRate(packetSentToUpper)
attr title "Packet error rate, histogram"
bin	-inf	0
bin	-0.5	0
bin	-0.48	0
bin	-0.46	0
bin	-0.44	0
bin	-0.42	0
bin	-0.4	0
bin	-0.38	0
bin	-0.36	0
bin	-0.34	0
bin	-0.32	0
bin	-0.3	0
bin	-0.28	0
bin	-0.26	0
bin	-0.24	0
bin	-0.22	0
bin	-0.2	0
bin	-0.18	0
bin	-0.16	0
bin	-0.14	0
bin	-0.12	0
bin	-0.1	0
bin	-0.08	0
bin	-0.06	0
bin	-0.04	0
bin	-0.02	0
bin	0	3
bin	0.02	0
bin	0.04	0
bin	0.06	0
bin	0.08	0
bin	0.1	0
bin	0.12	0
bin	0.14	0
bin	0.16	0
bin	0.18	0
bin	0.2	0
bin	0.22	0
bin	0.24	0
bin	0.26	0
bin	0.28	0
bin	0.3	0
bin	0.32	0
bin	0.34	0
bin	0.36	0
bin	0.38	0
bin	0.4	0
bin	0.42	0
bin	0.44	0
bin	0.46	0
bin	0.48	0
bin	0.5	0
statistic HelloTest.mote[2].wlan[0].radio bitErrorRate:histogram
field count 0
field mean -nan
field stddev -nan
field min -nan
field max -nan
field sum 0
field sqrsum 0
attr source bitErrorRate(packetSentToUpper)
attr title "Bit error rate, histogram"
bin	-inf	0
bin	0	0
bin	1	0
statistic HelloTest.mote[2].wlan[0].radio symbolErrorRate:histogram
field count 0
field mean -nan
field stddev -nan
field min -nan
field max -nan
field sum 0
field sqrsum 0
attr source symbolErrorRate(packetSentToUpper)
attr title "Symbol error rate, histogram"
bin	-inf	0
bin	0	0
bin	1	0
scalar HelloTest.mote[2].enl.np nbDataPacketsReceived 3
scalar HelloTest.mote[2].enl.np nbDataPacketsSent 1
scalar HelloTest.mote[2].enl.np nbDataPacketsForwarded 0
scalar HelloTest.mote[2].enl.np meanNbHops 1
scalar HelloTest.mote[3].wlan[0].mac.dcf.channelAccess.pendingQueue packetPopped:count 1
attr interpolationmode none
attr title "packet popped, count"
scalar HelloTest.mote[3].wlan[0].mac.dcf.channelAccess.pendingQueue packetPopped:sum(packetBytes) 104
attr interpolationmode none
attr title "packet popped, sum(packetBytes)"
statistic HelloTest.mote[3].wlan[0].mac.dcf.channelAccess.pendingQueue queueingTime:histogram
field count 1
field mean 0
field stddev -nan
field min 0
field max 0
field sum 0
field sqrsum 0
attr interpolationmode none
attr source queueingTime(packetPopped)
attr title "queueing times, histogram"
attr unit s
bin	-inf	0
bin	-0.5	0
bin	-0.48	0
bin	-0.46	0
bin	-0.44	0
bin	-0.42	0
bin	-0.4	0
bin	-0.38	0
bin	-0.36	0
bin	-0.34	0
bin	-0.32	0
bin	-0.3	0
bin	-0.28	0
bin	-0.26	0
bin	-0.24	0
bin	-0.22	0
bin	-0.2	0
bin	-0.18	0
bin	-0.16	0
bin	-0.14	0
bin	-0.12	0
bin	-0.1	0
bin	-0.08	0
bin	-0.06	0
bin	-0.04	0
bin	-0.02	0
bin	0	1
bin	0.02	0
bin	0.04	0
bin	0.06	0
bin	0.08	0
bin	0.1	0
bin	0.12	0
bin	0.14	0
bin	0.16	0
bin	0.18	0
bin	0.2	0
bin	0.22	0
bin	0.24	0
bin	0.26	0
bin	0.28	0
bin	0.3	0
bin	0.32	0
bin	0.34	0
bin	0.36	0
bin	0.38	0
bin	0.4	0
bin	0.42	0
bin	0.44	0
bin	0.46	0
bin	0.48	0
bin	0.5	0
scalar HelloTest.mote[3].wlan[0].mac.dcf.channelAccess.pendingQueue queueLength:max 1
attr interpolationmode sample-hold
attr source "count(packetPushed) - count(packetPopped) - count(packetRemoved) - count(packetDropped)"
attr title "queue length, max"
scalar HelloTest.mote[3].wlan[0].mac.dcf.channelAccess.pendingQueue queueLength:timeavg 0
attr interpolationmode sample-hold
attr source "count(packetPushed) - count(packetPopped) - count(packetRemoved) - count(packetDropped)"
attr title "queue length, timeavg"
scalar HelloTest.mote[3].wlan[0].mac.dcf.channelAccess.pendingQueue packetPushed:count 1
attr interpolationmode none
attr title "packet pushed, count"
scalar HelloTest.mote[3].wlan[0].mac.dcf.channelAccess.pendingQueue packetPushed:sum(packetBytes) 104
attr interpolationmode none
attr title "packet pushed, sum(packetBytes)"
scalar HelloTest.mote[3].wlan[0].mac.dcf.channelAccess.pendingQueue packetDropQueueOverflow:count 0
attr interpolationmode none
attr source packetDropReasonIsQueueOverflow(packetDropped)
attr title "packet drops: queue overflow, count"
scalar HelloTest.mote[3].wlan[0].mac.dcf.channelAccess.pendingQueue packetDropQueueOverflow:sum(packetBytes) 0
attr interpolationmode none
attr source packetDropReasonIsQueueOverflow(packetDropped)
attr title "packet drops: queue overflow, sum(packetBytes)"
scalar HelloTest.mote[3].wlan[0].mac.dcf.channelAccess.pendingQueue packetRemoved:count 0
attr interpolationmode none
attr title "packets removed, count"
scalar HelloTest.mote[3].wlan[0].mac.dcf.channelAccess.pendingQueue packetRemoved:sum(packetBytes) 0
attr interpolationmode none
attr title "packets removed, sum(packetBytes)"
statistic HelloTest.mote[3].wlan[0].mac.dcf.channelAccess.inProgressFrames queueingTime:histogram
field count 1
field mean 6.2e-05
field stddev -nan
field min 6.2e-05
field max 6.2e-05
field sum 6.2e-05
field sqrsum 3.844e-09
attr interpolationmode none
attr source queueingTime(packetDequeued)
attr title "queueing times, histogram"
bin	-inf	0
bin	0	1
bin	0.01	0
bin	0.02	0
bin	0.03	0
bin	0.04	0
bin	0.05	0
bin	0.06	0
bin	0.07	0
bin	0.08	0
bin	0.09	0
bin	0.1	0
bin	0.11	0
bin	0.12	0
bin	0.13	0
bin	0.14	0
bin	0.15	0
bin	0.16	0
bin	0.17	0
bin	0.18	0
bin	0.19	0
bin	0.2	0
bin	0.21	0
bin	0.22	0
bin	0.23	0
bin	0.24	0
bin	0.25	0
bin	0.26	0
bin	0.27	0
bin	0.28	0
bin	0.29	0
bin	0.3	0
bin	0.31	0
bin	0.32	0
bin	0.33	0
bin	0.34	0
bin	0.35	0
bin	0.36	0
bin	0.37	0
bin	0.38	0
bin	0.39	0
bin	0.4	0
bin	0.41	0
bin	0.42	0
bin	0.43	0
bin	0.44	0
bin	0.45	0
bin	0.46	0
bin	0.47	0
bin	0.48	0
bin	0.49	0
bin	0.5	0
bin	0.51	0
scalar HelloTest.mote[3].wlan[0].mac.dcf.channelAccess.inProgressFrames queueLength:max 1
attr interpolationmode sample-hold
attr source "count(packetEnqueued) - count(packetDequeued)"
attr title "queue length, max"
scalar HelloTest.mote[3].wlan[0].mac.dcf.channelAccess.inProgressFrames queueLength:timeavg 4.3400796460352e-06
attr interpolationmode sample-hold
attr source "count(packetEnqueued) - count(packetDequeued)"
attr title "queue length, timeavg"
scalar HelloTest.mote[3].wlan[0].mac.dcf.channelAccess.contention channelAccessGranted:count 1
attr title "channel access granted, count"
scalar HelloTest.mote[3].wlan[0].mac.dcf.channelAccess.contention stateChanged:count 16
attr interpolationmode none
attr title "contention state changed, count"
scalar HelloTest.mote[3].wlan[0].mac.dcf.channelAccess channelOwnershipChanged:count 2
attr interpolationmode sample-hold
attr title "channel ownership, count"
scalar HelloTest.mote[3].wlan[0].mac.dcf.originatorMacDataService packetAggregated:count 0
attr title "packets aggregated, count"
scalar HelloTest.mote[3].wlan[0].mac.dcf.originatorMacDataService packetFragmented:count 0
attr title "packets fragmented, count"
scalar HelloTest.mote[3].wlan[0].mac.dcf.recipientMacDataService packetDeaggregated:count 0
attr title "packets deaggregated, count"
scalar HelloTest.mote[3].wlan[0].mac.dcf.recipientMacDataService packetDefragmented:count 2
attr title "packets defragmented, count"
scalar HelloTest.mote[3].wlan[0].mac.dcf.recipientMacDataService packetDropDuplicateDetected:count 0
attr interpolationmode none
attr source packetDropReasonIsDuplicateDetected(packetDropped)
attr title "packet drops: duplicate detected, count"
scalar HelloTest.mote[3].wlan[0].mac.dcf.recipientMacDataService packetDropDuplicateDetected:sum(packetBytes) 0
attr interpolationmode none
attr source packetDropReasonIsDuplicateDetected(packetDropped)
attr title "packet drops: duplicate detected, sum(packetBytes)"
scalar HelloTest.mote[3].wlan[0].mac.dcf.recoveryProcedure retryLimitReached:count 0
attr title "retry limit reached, count"
scalar HelloTest.mote[3].wlan[0].mac.dcf frameSequenceFinished:count 1
attr title "finished frame sequences, count"
statistic HelloTest.mote[3].wlan[0].mac.dcf frameSequenceDuration:histogram
field count 1
field mean 6.2e-05
field stddev -nan
field min 6.2e-05
field max 6.2e-05
field sum 6.2e-05
field sqrsum 3.844e-09
attr source frameSequenceDuration(frameSequenceFinished)
attr title "frame sequence durations, histogram"
bin	-inf	0
bin	0	1
bin	0.01	0
bin	0.02	0
bin	0.03	0
bin	0.04	0
bin	0.05	0
bin	0.06	0
bin	0.07	0
bin	0.08	0
bin	0.09	0
bin	0.1	0
bin	0.11	0
bin	0.12	0
bin	0.13	0
bin	0.14	0
bin	0.15	0
bin	0.16	0
bin	0.17	0
bin	0.18	0
bin	0.19	0
bin	0.2	0
bin	0.21	0
bin	0.22	0
bin	0.23	0
bin	0.24	0
bin	0.25	0
bin	0.26	0
bin	0.27	0
bin	0.28	0
bin	0.29	0
bin	0.3	0
bin	0.31	0
bin	0.32	0
bin	0.33	0
bin	0.34	0
bin	0.35	0
bin	0.36	0
bin	0.37	0
bin	0.38	0
bin	0.39	0
bin	0.4	0
bin	0.41	0
bin	0.42	0
bin	0.43	0
bin	0.44	0
bin	0.45	0
bin	0.46	0
bin	0.47	0
bin	0.48	0
bin	0.49	0
bin	0.5	0
bin	0.51	0
statistic HelloTest.mote[3].wlan[0].mac.dcf frameSequenceNumPackets:histogram
field count 1
field mean 1
field stddev -nan
field min 1
field max 1
field sum 1
field sqrsum 1
attr source frameSequenceNumPackets(frameSequenceFinished)
attr title "frame sequences: number of packets, histogram"
bin	-inf	0
bin	0	0
bin	1	1
bin	2	0
scalar HelloTest.mote[3].wlan[0].mac.dcf packetReceivedFromPeer:count 2
attr interpolationmode none
attr title "packets received, count"
scalar HelloTest.mote[3].wlan[0].mac.dcf packetReceivedFromPeer:sum(packetBytes) 208
attr interpolationmode none
attr title "packets received, sum(packetBytes)"
scalar HelloTest.mote[3].wlan[0].mac.dcf packetReceivedFromPeerUnicast:count 0
attr interpolationmode none
attr source ieee80211Unicast(packetReceivedFromPeer)
attr title "packets received: unicast, count"
scalar HelloTest.mote[3].wlan[0].mac.dcf packetReceivedFromPeerUnicast:sum(packetBytes) 0
attr interpolationmode none
attr source ieee80211Unicast(packetReceivedFromPeer)
attr title "packets received: unicast, sum(packetBytes)"
scalar HelloTest.mote[3].wlan[0].mac.dcf packetReceivedFromPeerMulticast:count 2
attr interpolationmode none
attr source ieee80211Multicast(packetReceivedFromPeer)
attr title "packets received: multicast, count"
scalar HelloTest.mote[3].wlan[0].mac.dcf packetReceivedFromPeerMulticast:sum(packetBytes) 208
attr interpolationmode none
attr source ieee80211Multicast(packetReceivedFromPeer)
attr title "packets received: multicast, sum(packetBytes)"
scalar HelloTest.mote[3].wlan[0].mac.dcf packetReceivedFromPeerBroadcast:count 2
attr interpolationmode none
attr source ieee80211Broadcast(packetReceivedFromPeer)
attr title "packets received: broadcast, count"
scalar HelloTest.mote[3].wlan[0].mac.dcf packetReceivedFromPeerBroadcast:sum(packetBytes) 208
attr interpolationmode none
attr source ieee80211Broadcast(packetReceivedFromPeer)
attr title "packets received: broadcast, sum(packetBytes)"
scalar HelloTest.mote[3].wlan[0].mac.dcf packetReceivedFromPeerWithRetry:count 0
attr interpolationmode none
attr source ieee80211Retry(packetReceivedFromPeer)
attr title "packets received: with retry, count"
scalar HelloTest.mote[3].wlan[0].mac.dcf packetReceivedFromPeerWithRetry:sum(packetBytes) 0
attr interpolationmode none
attr source ieee80211Retry(packetReceivedFromPeer)
attr title "packets received: with retry, sum(packetBytes)"
scalar HelloTest.mote[3].wlan[0].mac.dcf packetReceivedFromPeerWithoutRetry:count 2
attr interpolationmode none
attr source ieee80211NotRetry(packetReceivedFromPeer)
attr title "packets received: without retry, count"
scalar HelloTest.mote[3].wlan[0].mac.dcf packetReceivedFromPeerWithoutRetry:sum(packetBytes) 208
attr interpolationmode none
attr source ieee80211NotRetry(packetReceivedFromPeer)
attr title "packets received: without retry, sum(packetBytes)"
scalar HelloTest.mote[3].wlan[0].mac.dcf packetSentToPeer:count 1
attr interpolationmode none
attr title "packets sent, count"
scalar HelloTest.mote[3].wlan[0].mac.dcf packetSentToPeer:sum(packetBytes) 104
attr interpolationmode none
attr title "packets sent, sum(packetBytes)"
scalar HelloTest.mote[3].wlan[0].mac.dcf packetSentToPeerUnicast:count 0
attr interpolationmode none
attr source ieee80211Unicast(packetSentToPeer)
attr title "packets sent: unicast, count"
scalar HelloTest.mote[3].wlan[0].mac.dcf packetSentToPeerUnicast:sum(packetBytes) 0
attr interpolationmode none
attr source ieee80211Unicast(packetSentToPeer)
[...]
attr title "queue length, timeavg"
scalar HelloTest.mote[15].wlan[0].mac.dcf.channelAccess.pendingQueue packetPushed:count 1
attr interpolationmode none
attr title "packet pushed, count"
scalar HelloTest.mote[15].wlan[0].mac.dcf.channelAccess.pendingQueue packetPushed:sum(packetBytes) 104
attr interpolationmode none
attr title "packet pushed, sum(packetBytes)"
scalar HelloTest.mote[15].wlan[0].mac.dcf.channelAccess.pendingQueue packetDropQueueOverflow:count 0
attr interpolationmode none
attr source packetDropReasonIsQueueOverflow(packetDropped)
attr title "packet drops: queue overflow, count"
scalar HelloTest.mote[15].wlan[0].mac.dcf.channelAccess.pendingQueue packetDropQueueOverflow:sum(packetBytes) 0
attr interpolationmode none
attr source packetDropReasonIsQueueOverflow(packetDropped)
attr title "packet drops: queue overflow, sum(packetBytes)"
scalar HelloTest.mote[15].wlan[0].mac.dcf.channelAccess.pendingQueue packetRemoved:count 0
attr interpolationmode none
attr title "packets removed, count"
scalar HelloTest.mote[15].wlan[0].mac.dcf.channelAccess.pendingQueue packetRemoved:sum(packetBytes) 0
attr interpolationmode none
attr title "packets removed, sum(packetBytes)"
statistic HelloTest.mote[15].wlan[0].mac.dcf.channelAccess.inProgressFrames queueingTime:histogram
field count 1
field mean 6.2e-05
field stddev -nan
field min 6.2e-05
field max 6.2e-05
field sum 6.2e-05
field sqrsum 3.844e-09
attr interpolationmode none
attr source queueingTime(packetDequeued)
attr title "queueing times, histogram"
bin	-inf	0
bin	0	1
bin	0.01	0
bin	0.02	0
bin	0.03	0
bin	0.04	0
bin	0.05	0
bin	0.06	0
bin	0.07	0
bin	0.08	0
bin	0.09	0
bin	0.1	0
bin	0.11	0
bin	0.12	0
bin	0.13	0
bin	0.14	0
bin	0.15	0
bin	0.16	0
bin	0.17	0
bin	0.18	0
bin	0.19	0
bin	0.2	0
bin	0.21	0
bin	0.22	0
bin	0.23	0
bin	0.24	0
bin	0.25	0
bin	0.26	0
bin	0.27	0
bin	0.28	0
bin	0.29	0
bin	0.3	0
bin	0.31	0
bin	0.32	0
bin	0.33	0
bin	0.34	0
bin	0.35	0
bin	0.36	0
bin	0.37	0
bin	0.38	0
bin	0.39	0
bin	0.4	0
bin	0.41	0
bin	0.42	0
bin	0.43	0
bin	0.44	0
bin	0.45	0
bin	0.46	0
bin	0.47	0
bin	0.48	0
bin	0.49	0
bin	0.5	0
bin	0.51	0
scalar HelloTest.mote[15].wlan[0].mac.dcf.channelAccess.inProgressFrames queueLength:max 1
attr interpolationmode sample-hold
attr source "count(packetEnqueued) - count(packetDequeued)"
attr title "queue length, max"
scalar HelloTest.mote[15].wlan[0].mac.dcf.channelAccess.inProgressFrames queueLength:timeavg 5.0410070943205e-06
attr interpolationmode sample-hold
attr source "count(packetEnqueued) - count(packetDequeued)"
attr title "queue length, timeavg"
scalar HelloTest.mote[15].wlan[0].mac.dcf.channelAccess.contention channelAccessGranted:count 1
attr title "channel access granted, count"
scalar HelloTest.mote[15].wlan[0].mac.dcf.channelAccess.contention stateChanged:count 16
attr interpolationmode none
attr title "contention state changed, count"
scalar HelloTest.mote[15].wlan[0].mac.dcf.channelAccess channelOwnershipChanged:count 2
attr interpolationmode sample-hold
attr title "channel ownership, count"
scalar HelloTest.mote[15].wlan[0].mac.dcf.originatorMacDataService packetAggregated:count 0
attr title "packets aggregated, count"
scalar HelloTest.mote[15].wlan[0].mac.dcf.originatorMacDataService packetFragmented:count 0
attr title "packets fragmented, count"
scalar HelloTest.mote[15].wlan[0].mac.dcf.recipientMacDataService packetDeaggregated:count 0
attr title "packets deaggregated, count"
scalar HelloTest.mote[15].wlan[0].mac.dcf.recipientMacDataService packetDefragmented:count 2
attr title "packets defragmented, count"
scalar HelloTest.mote[15].wlan[0].mac.dcf.recipientMacDataService packetDropDuplicateDetected:count 0
attr interpolationmode none
attr source packetDropReasonIsDuplicateDetected(packetDropped)
attr title "packet drops: duplicate detected, count"
scalar HelloTest.mote[15].wlan[0].mac.dcf.recipientMacDataService packetDropDuplicateDetected:sum(packetBytes) 0
attr interpolationmode none
attr source packetDropReasonIsDuplicateDetected(packetDropped)
attr title "packet drops: duplicate detected, sum(packetBytes)"
scalar HelloTest.mote[15].wlan[0].mac.dcf.recoveryProcedure retryLimitReached:count 0
attr title "retry limit reached, count"
scalar HelloTest.mote[15].wlan[0].mac.dcf frameSequenceFinished:count 1
attr title "finished frame sequences, count"
statistic HelloTest.mote[15].wlan[0].mac.dcf frameSequenceDuration:histogram
field count 1
field mean 6.2e-05
field stddev -nan
field min 6.2e-05
field max 6.2e-05
field sum 6.2e-05
field sqrsum 3.844e-09
attr source frameSequenceDuration(frameSequenceFinished)
attr title "frame sequence durations, histogram"
bin	-inf	0
bin	0	1
bin	0.01	0
bin	0.02	0
bin	0.03	0
bin	0.04	0
bin	0.05	0
bin	0.06	0
bin	0.07	0
bin	0.08	0
bin	0.09	0
bin	0.1	0
bin	0.11	0
bin	0.12	0
bin	0.13	0
bin	0.14	0
bin	0.15	0
bin	0.16	0
bin	0.17	0
bin	0.18	0
bin	0.19	0
bin	0.2	0
bin	0.21	0
bin	0.22	0
bin	0.23	0
bin	0.24	0
bin	0.25	0
bin	0.26	0
bin	0.27	0
bin	0.28	0
bin	0.29	0
bin	0.3	0
bin	0.31	0
bin	0.32	0
bin	0.33	0
bin	0.34	0
bin	0.35	0
bin	0.36	0
bin	0.37	0
bin	0.38	0
bin	0.39	0
bin	0.4	0
bin	0.41	0
bin	0.42	0
bin	0.43	0
bin	0.44	0
bin	0.45	0
bin	0.46	0
bin	0.47	0
bin	0.48	0
bin	0.49	0
bin	0.5	0
bin	0.51	0
statistic HelloTest.mote[15].wlan[0].mac.dcf frameSequenceNumPackets:histogram
field count 1
field mean 1
field stddev -nan
field min 1
field max 1
field sum 1
field sqrsum 1
attr source frameSequenceNumPackets(frameSequenceFinished)
attr title "frame sequences: number of packets, histogram"
bin	-inf	0
bin	0	0
bin	1	1
bin	2	0
scalar HelloTest.mote[15].wlan[0].mac.dcf packetReceivedFromPeer:count 2
attr interpolationmode none
attr title "packets received, count"
scalar HelloTest.mote[15].wlan[0].mac.dcf packetReceivedFromPeer:sum(packetBytes) 208
attr interpolationmode none
attr title "packets received, sum(packetBytes)"
scalar HelloTest.mote[15].wlan[0].mac.dcf packetReceivedFromPeerUnicast:count 0
attr interpolationmode none
attr source ieee80211Unicast(packetReceivedFromPeer)
attr title "packets received: unicast, count"
scalar HelloTest.mote[15].wlan[0].mac.dcf packetReceivedFromPeerUnicast:sum(packetBytes) 0
attr interpolationmode none
attr source ieee80211Unicast(packetReceivedFromPeer)
attr title "packets received: unicast, sum(packetBytes)"
scalar HelloTest.mote[15].wlan[0].mac.dcf packetReceivedFromPeerMulticast:count 2
attr interpolationmode none
attr source ieee80211Multicast(packetReceivedFromPeer)
attr title "packets received: multicast, count"
scalar HelloTest.mote[15].wlan[0].mac.dcf packetReceivedFromPeerMulticast:sum(packetBytes) 208
attr interpolationmode none
attr source ieee80211Multicast(packetReceivedFromPeer)
attr title "packets received: multicast, sum(packetBytes)"
scalar HelloTest.mote[15].wlan[0].mac.dcf packetReceivedFromPeerBroadcast:count 2
attr interpolationmode none
attr source ieee80211Broadcast(packetReceivedFromPeer)
attr title "packets received: broadcast, count"
scalar HelloTest.mote[15].wlan[0].mac.dcf packetReceivedFromPeerBroadcast:sum(packetBytes) 208
attr interpolationmode none
attr source ieee80211Broadcast(packetReceivedFromPeer)
attr title "packets received: broadcast, sum(packetBytes)"
scalar HelloTest.mote[15].wlan[0].mac.dcf packetReceivedFromPeerWithRetry:count 0
attr interpolationmode none
attr source ieee80211Retry(packetReceivedFromPeer)
attr title "packets received: with retry, count"
scalar HelloTest.mote[15].wlan[0].mac.dcf packetReceivedFromPeerWithRetry:sum(packetBytes) 0
attr interpolationmode none
attr source ieee80211Retry(packetReceivedFromPeer)
attr title "packets received: with retry, sum(packetBytes)"
scalar HelloTest.mote[15].wlan[0].mac.dcf packetReceivedFromPeerWithoutRetry:count 2
attr interpolationmode none
attr source ieee80211NotRetry(packetReceivedFromPeer)
attr title "packets received: without retry, count"
scalar HelloTest.mote[15].wlan[0].mac.dcf packetReceivedFromPeerWithoutRetry:sum(packetBytes) 208
attr interpolationmode none
attr source ieee80211NotRetry(packetReceivedFromPeer)
attr title "packets received: without retry, sum(packetBytes)"
scalar HelloTest.mote[15].wlan[0].mac.dcf packetSentToPeer:count 1
attr interpolationmode none
attr title "packets sent, count"
scalar HelloTest.mote[15].wlan[0].mac.dcf packetSentToPeer:sum(packetBytes) 104
attr interpolationmode none
attr title "packets sent, sum(packetBytes)"
scalar HelloTest.mote[15].wlan[0].mac.dcf packetSentToPeerUnicast:count 0
attr interpolationmode none
attr source ieee80211Unicast(packetSentToPeer)
attr title "packets sent: unicast, count"
scalar HelloTest.mote[15].wlan[0].mac.dcf packetSentToPeerUnicast:sum(packetBytes) 0
attr interpolationmode none
attr source ieee80211Unicast(packetSentToPeer)
attr title "packets sent: unicast, sum(packetBytes)"
scalar HelloTest.mote[15].wlan[0].mac.dcf packetSentToPeerMulticast:count 1
attr interpolationmode none
attr source ieee80211Multicast(packetSentToPeer)
attr title "packets sent: multicast, count"
scalar HelloTest.mote[15].wlan[0].mac.dcf packetSentToPeerMulticast:sum(packetBytes) 104
attr interpolationmode none
attr source ieee80211Multicast(packetSentToPeer)
attr title "packets sent: multicast, sum(packetBytes)"
scalar HelloTest.mote[15].wlan[0].mac.dcf packetSentToPeerBroadcast:count 1
attr interpolationmode none
attr source ieee80211Broadcast(packetSentToPeer)
attr title "packets sent: broadcast , count"
scalar HelloTest.mote[15].wlan[0].mac.dcf packetSentToPeerBroadcast:sum(packetBytes) 104
attr interpolationmode none
attr source ieee80211Broadcast(packetSentToPeer)
attr title "packets sent: broadcast , sum(packetBytes)"
scalar HelloTest.mote[15].wlan[0].mac.dcf packetSentToPeerWithRetry:count 0
attr interpolationmode none
attr source ieee80211Retry(packetSentToPeer)
attr title "packets sent: with retry, count"
scalar HelloTest.mote[15].wlan[0].mac.dcf packetSentToPeerWithRetry:sum(packetBytes) 0
attr interpolationmode none
attr source ieee80211Retry(packetSentToPeer)
attr title "packets sent: with retry, sum(packetBytes)"
scalar HelloTest.mote[15].wlan[0].mac.dcf packetSentToPeerWithoutRetry:count 1
attr interpolationmode none
attr source ieee80211NotRetry(packetSentToPeer)
attr title "packets sent: without retry, count"
scalar HelloTest.mote[15].wlan[0].mac.dcf packetSentToPeerWithoutRetry:sum(packetBytes) 104
attr interpolationmode none
attr source ieee80211NotRetry(packetSentToPeer)
attr title "packets sent: without retry, sum(packetBytes)"
scalar HelloTest.mote[15].wlan[0].mac.dcf packetDrop:count 0
attr interpolationmode none
attr source packetDropped
attr title "packet drops, count"
scalar HelloTest.mote[15].wlan[0].mac.dcf packetDrop:sum(packetBytes) 0
attr interpolationmode none
attr source packetDropped
attr title "packet drops, sum(packetBytes)"
scalar HelloTest.mote[15].wlan[0].mac.dcf packetDropNotAddressedToUs:count 0
attr interpolationmode none
attr source packetDropReasonIsNotAddressedToUs(packetDropped)
attr title "packet drops: not addressed to us, count"
scalar HelloTest.mote[15].wlan[0].mac.dcf packetDropNotAddressedToUs:sum(packetBytes) 0
attr interpolationmode none
attr source packetDropReasonIsNotAddressedToUs(packetDropped)
attr title "packet drops: not addressed to us, sum(packetBytes)"
scalar HelloTest.mote[15].wlan[0].mac.dcf packetDropQueueOverflow:count 0
attr interpolationmode none
attr source packetDropReasonIsQueueOverflow(packetDropped)
attr title "packet drops: queue overflow, count"
scalar HelloTest.mote[15].wlan[0].mac.dcf packetDropQueueOverflow:sum(packetBytes) 0
attr interpolationmode none
attr source packetDropReasonIsQueueOverflow(packetDropped)
attr title "packet drops: queue overflow, sum(packetBytes)"
scalar HelloTest.mote[15].wlan[0].mac.dcf packetDropRetryLimitReached:count 0
attr interpolationmode none
attr source packetDropReasonIsRetryLimitReached(packetDropped)
attr title "packet drops: retry limit reached, count"
scalar HelloTest.mote[15].wlan[0].mac.dcf packetDropRetryLimitReached:sum(packetBytes) 0
attr interpolationmode none
attr source packetDropReasonIsRetryLimitReached(packetDropped)
attr title "packet drops: retry limit reached, sum(packetBytes)"
scalar HelloTest.mote[15].wlan[0].mac.dcf linkBroken:count 0
attr interpolationmode none
attr title "link breaks, count"
scalar HelloTest.mote[15].wlan[0].mac packetReceivedFromLower:count 2
attr interpolationmode none
attr title "packets received from lower layer, count"
scalar HelloTest.mote[15].wlan[0].mac packetReceivedFromLower:sum(packetBytes) 208
attr interpolationmode none
attr title "packets received from lower layer, sum(packetBytes)"
scalar HelloTest.mote[15].wlan[0].mac packetSentToLower:count 1
attr interpolationmode none
attr title "packets sent to lower layer, count"
scalar HelloTest.mote[15].wlan[0].mac packetSentToLower:sum(packetBytes) 104
attr interpolationmode none
attr title "packets sent to lower layer, sum(packetBytes)"
scalar HelloTest.mote[15].wlan[0].mac packetReceivedFromUpper:count 1
attr interpolationmode none
attr title "packets received from upper layer, count"
scalar HelloTest.mote[15].wlan[0].mac packetReceivedFromUpper:sum(packetBytes) 76
attr interpolationmode none
attr title "packets received from upper layer, sum(packetBytes)"
scalar HelloTest.mote[15].wlan[0].mac packetSentToUpper:count 2
attr interpolationmode none
attr title "packets sent to upper layer, count"
scalar HelloTest.mote[15].wlan[0].mac packetSentToUpper:sum(packetBytes) 152
attr interpolationmode none
attr title "packets sent to upper layer, sum(packetBytes)"
scalar HelloTest.mote[15].wlan[0].mac packetDrop:count 0
attr interpolationmode none
attr source packetDropped
attr title "packet drops, count"
scalar HelloTest.mote[15].wlan[0].mac packetDrop:sum(packetBytes) 0
attr interpolationmode none
attr source packetDropped
attr title "packet drops, sum(packetBytes)"
scalar HelloTest.mote[15].wlan[0].mac packetDropIncorrectlyReceived:count 0
attr interpolationmode none
attr source packetDropReasonIsIncorrectlyReceived(packetDropped)
attr title "packet drops: incorrectly received, count"
scalar HelloTest.mote[15].wlan[0].mac packetDropIncorrectlyReceived:sum(packetBytes) 0
attr interpolationmode none
attr source packetDropReasonIsIncorrectlyReceived(packetDropped)
attr title "packet drops: incorrectly received, sum(packetBytes)"
scalar HelloTest.mote[15].wlan[0].mac packetDropNotAddressedToUs:count 0
attr interpolationmode none
attr source packetDropReasonIsNotAddressedToUs(packetDropped)
attr title "packet drops: not addressed to us, count"
scalar HelloTest.mote[15].wlan[0].mac packetDropNotAddressedToUs:sum(packetBytes) 0
attr interpolationmode none
attr source packetDropReasonIsNotAddressedToUs(packetDropped)
attr title "packet drops: not addressed to us, sum(packetBytes)"
scalar HelloTest.mote[15].wlan[0].mac packetDropQueueOverflow:count 0
attr interpolationmode none
attr source packetDropReasonIsQueueOverflow(packetDropped)
attr title "packet drops: queue overflow, count"
scalar HelloTest.mote[15].wlan[0].mac packetDropQueueOverflow:sum(packetBytes) 0
attr interpolationmode none
attr source packetDropReasonIsQueueOverflow(packetDropped)
attr title "packet drops: queue overflow, sum(packetBytes)"
scalar HelloTest.mote[15].wlan[0].mac packetDropRetryLimitReached:count 0
attr interpolationmode none
attr source packetDropReasonIsRetryLimitReached(packetDropped)
attr title "packet drops: retry limit reached, count"
scalar HelloTest.mote[15].wlan[0].mac packetDropRetryLimitReached:sum(packetBytes) 0
attr interpolationmode none
attr source packetDropReasonIsRetryLimitReached(packetDropped)
attr title "packet drops: retry limit reached, sum(packetBytes)"
scalar HelloTest.mote[15].wlan[0].mac packetDropDuplicateDetected:count 0
attr interpolationmode none
attr source packetDropReasonIsDuplicateDetected(packetDropped)
attr title "packet drops: duplicate detected, count"
scalar HelloTest.mote[15].wlan[0].mac packetDropDuplicateDetected:sum(packetBytes) 0
attr interpolationmode none
attr source packetDropReasonIsDuplicateDetected(packetDropped)
attr title "packet drops: duplicate detected, sum(packetBytes)"
scalar HelloTest.mote[15].wlan[0].mac packetDropOther:count 0
attr interpolationmode none
attr source packetDropReasonIsOther(packetDropped)
attr title "packet drops: other, count"
scalar HelloTest.mote[15].wlan[0].mac packetDropOther:sum(packetBytes) 0
attr interpolationmode none
attr source packetDropReasonIsOther(packetDropped)
attr title "packet drops: other, sum(packetBytes)"
scalar HelloTest.mote[15].wlan[0].mac linkBroken:count 0
attr interpolationmode none
attr title "link breaks, count"
statistic HelloTest.mote[15].wlan[0].radio radioChannel:histogram
field count 0
field mean -nan
field stddev -nan
field min -nan
field max -nan
field sum 0
field sqrsum 0
attr interpolationmode sample-hold
attr source radioChannelChanged
attr title "Radio channel, histogram"
bin	-inf	0
bin	0	0
bin	1	0
scalar HelloTest.mote[15].wlan[0].radio radioMode:count 2
attr interpolationmode sample-hold
attr source radioModeChanged
attr title "Radio mode, count"
scalar HelloTest.mote[15].wlan[0].radio receptionState:count 6
attr interpolationmode sample-hold
attr source receptionStateChanged
attr title "Radio reception state, count"
scalar HelloTest.mote[15].wlan[0].radio transmissionState:count 4
attr interpolationmode sample-hold
attr source transmissionStateChanged
attr title "Radio transmission state, count"
statistic HelloTest.mote[15].wlan[0].radio minSnir:histogram
field count 2
field mean 605.88141287831
field stddev 0
field min 605.88141287831
field max 605.88141287831
field sum 1211.7628257566
field sqrsum 734184.57294284
attr source minimumSnir(packetSentToUpper)
attr title "Min SNIR, histogram"
bin	-inf	0
bin	605.38	0
bin	605.4	0
bin	605.42	0
bin	605.44	0
bin	605.46	0
bin	605.48	0
bin	605.5	0
bin	605.52	0
bin	605.54	0
bin	605.56	0
bin	605.58	0
bin	605.6	0
bin	605.62	0
bin	605.64	0
bin	605.66	0
bin	605.68	0
bin	605.7	0
bin	605.72	0
bin	605.74	0
bin	605.76	0
bin	605.78	0
bin	605.8	0
bin	605.82	0
bin	605.84	0
bin	605.86	0
bin	605.88	2
bin	605.9	0
bin	605.92	0
bin	605.94	0
bin	605.96	0
bin	605.98	0
bin	606	0
bin	606.02	0
bin	606.04	0
bin	606.06	0
bin	606.08	0
bin	606.1	0
bin	606.12	0
bin	606.14	0
bin	606.16	0
bin	606.18	0
bin	606.2	0
bin	606.22	0
bin	606.24	0
bin	606.26	0
bin	606.28	0
bin	606.3	0
bin	606.32	0
bin	606.34	0
bin	606.36	0
bin	606.38	0
bin	606.4	0
statistic HelloTest.mote[15].wlan[0].radio packetErrorRate:histogram
field count 2
field mean 0
field stddev 0
field min 0
field max 0
field sum 0
field sqrsum 0
attr source packetErrorRate(packetSentToUpper)
attr title "Packet error rate, histogram"
bin	-inf	0
bin	-0.5	0
bin	-0.48	0
bin	-0.46	0
bin	-0.44	0
bin	-0.42	0
bin	-0.4	0
bin	-0.38	0
bin	-0.36	0
bin	-0.34	0
bin	-0.32	0
bin	-0.3	0
bin	-0.28	0
bin	-0.26	0
bin	-0.24	0
bin	-0.22	0
bin	-0.2	0
bin	-0.18	0
bin	-0.16	0
bin	-0.14	0
bin	-0.12	0
bin	-0.1	0
bin	-0.08	0
bin	-0.06	0
bin	-0.04	0
bin	-0.02	0
bin	0	2
bin	0.02	0
bin	0.04	0
bin	0.06	0
bin	0.08	0
bin	0.1	0
bin	0.12	0
bin	0.14	0
bin	0.16	0
bin	0.18	0
bin	0.2	0
bin	0.22	0
bin	0.24	0
bin	0.26	0
bin	0.28	0
bin	0.3	0
bin	0.32	0
bin	0.34	0
bin	0.36	0
bin	0.38	0
bin	0.4	0
bin	0.42	0
bin	0.44	0
bin	0.46	0
bin	0.48	0
bin	0.5	0
statistic HelloTest.mote[15].wlan[0].radio bitErrorRate:histogram
field count 0
field mean -nan
field stddev -nan
field min -nan
field max -nan
field sum 0
field sqrsum 0
attr source bitErrorRate(packetSentToUpper)
attr title "Bit error rate, histogram"
bin	-inf	0
bin	0	0
bin	1	0
statistic HelloTest.mote[15].wlan[0].radio symbolErrorRate:histogram
field count 0
field mean -nan
field stddev -nan
field min -nan
field max -nan
field sum 0
field sqrsum 0
attr source symbolErrorRate(packetSentToUpper)
attr title "Symbol error rate, histogram"
bin	-inf	0
bin	0	0
bin	1	0
scalar HelloTest.mote[15].enl.np nbDataPacketsReceived 2
scalar HelloTest.mote[15].enl.np nbDataPacketsSent 1
scalar HelloTest.mote[15].enl.np nbDataPacketsForwarded 0
scalar HelloTest.mote[15].enl.np meanNbHops 1

